* Design:	ADDER_3bit
* Created:	"Fri Dec 9 2022"
* Vendor:	"Mentor Graphics Corporation"
* Program:	"Calibre xACT 3D"
* Version:	"v2017.4_19.14"
* Corner Name: typical_27
* Nominal Temperature: 25C
* Circuit Temperature: 27C
* 
* Integrated TICER reduction is not enabled.
* SHORT DELAY THRESHOLD: 2e-15
* Fill Mode: NG
* PEX REDUCE CC ABSOLUTE : 1
* PEX REDUCE CC RELATIVE : 0.01
* Delta transform mode : 344834

* .include "ADDER_3bit.pex.netlist.pex"

* Start of included file ADDER_3bit.pex.netlist.pex

.subckt PM_ADDER_3bit%XI0/XI1/NET1 VSS 16 17 27 29 11 1 10 2 13 12 3
c1 1 VSS 0.00983268f $X=-0.432 $Y=1.742
c2 2 VSS 0.00483647f $X=-0.27 $Y=1.742
c3 3 VSS 0.005512f $X=-0.162 $Y=1.742
c4 10 VSS 0.00347821f $X=-0.4465 $Y=1.742
c5 11 VSS 0.00220517f $X=-0.268 $Y=1.742
c6 12 VSS 0.0268363f $X=-0.1765 $Y=1.742
c7 13 VSS 0.00964785f $X=-0.432 $Y=1.76
r1 12 3 0.231482 $w=5.4e-08 $l=1.25e-08 $layer=<ENCRYPTED_LAYER_48>
+ $thickness=1e-09 $X=-0.1765 $Y=1.742 $X2=-0.162 $Y2=1.742
r2 29 12 0.0462963 $w=5.4e-08 $l=2.5e-09 $layer=<ENCRYPTED_LAYER_48>
+ $thickness=1e-09 $X=-0.1793 $Y=1.742 $X2=-0.1765 $Y2=1.742
r3 27 26 0.0462963 $w=5.4e-08 $l=2.5e-09 $layer=<ENCRYPTED_LAYER_48>
+ $thickness=1e-09 $X=-0.2526 $Y=1.742 $X2=-0.2555 $Y2=1.742
r4 11 26 0.231482 $w=5.4e-08 $l=1.25e-08 $layer=<ENCRYPTED_LAYER_48>
+ $thickness=1e-09 $X=-0.268 $Y=1.742 $X2=-0.2555 $Y2=1.742
r5 3 25 19.3796 $w=1.8e-08 $l=1.8e-08 $layer=<ENCRYPTED_LAYER_7> $X=-0.162
+ $Y=1.742 $X2=-0.162 $Y2=1.76
r6 2 20 19.3796 $w=1.8e-08 $l=1.8e-08 $layer=<ENCRYPTED_LAYER_7> $X=-0.27
+ $Y=1.742 $X2=-0.27 $Y2=1.76
r7 24 25 3.14806 $w=1.8e-08 $l=1.35e-08 $layer=M1 $thickness=3.6e-08 $X=-0.1755
+ $Y=1.76 $X2=-0.162 $Y2=1.76
r8 23 24 6.29612 $w=1.8e-08 $l=2.7e-08 $layer=M1 $thickness=3.6e-08 $X=-0.2025
+ $Y=1.76 $X2=-0.1755 $Y2=1.76
r9 22 23 8.39483 $w=1.8e-08 $l=3.6e-08 $layer=M1 $thickness=3.6e-08 $X=-0.2385
+ $Y=1.76 $X2=-0.2025 $Y2=1.76
r10 21 22 4.19742 $w=1.8e-08 $l=1.8e-08 $layer=M1 $thickness=3.6e-08 $X=-0.2565
+ $Y=1.76 $X2=-0.2385 $Y2=1.76
r11 20 21 3.14806 $w=1.8e-08 $l=1.35e-08 $layer=M1 $thickness=3.6e-08 $X=-0.27
+ $Y=1.76 $X2=-0.2565 $Y2=1.76
r12 19 20 3.14806 $w=1.8e-08 $l=1.35e-08 $layer=M1 $thickness=3.6e-08
+ $X=-0.2835 $Y=1.76 $X2=-0.27 $Y2=1.76
r13 18 19 16.7897 $w=1.8e-08 $l=7.2e-08 $layer=M1 $thickness=3.6e-08 $X=-0.3555
+ $Y=1.76 $X2=-0.2835 $Y2=1.76
r14 13 18 17.839 $w=1.8e-08 $l=7.65e-08 $layer=M1 $thickness=3.6e-08 $X=-0.432
+ $Y=1.76 $X2=-0.3555 $Y2=1.76
r15 1 13 19.3796 $w=1.8e-08 $l=1.8e-08 $layer=<ENCRYPTED_LAYER_7> $X=-0.432
+ $Y=1.742 $X2=-0.432 $Y2=1.76
r16 17 15 0.0462963 $w=5.4e-08 $l=2.5e-09 $layer=<ENCRYPTED_LAYER_48>
+ $thickness=1e-09 $X=-0.4146 $Y=1.742 $X2=-0.4175 $Y2=1.742
r17 1 15 0.268519 $w=5.4e-08 $l=1.45e-08 $layer=<ENCRYPTED_LAYER_48>
+ $thickness=1e-09 $X=-0.432 $Y=1.742 $X2=-0.4175 $Y2=1.742
r18 10 1 0.268519 $w=5.4e-08 $l=1.45e-08 $layer=<ENCRYPTED_LAYER_48>
+ $thickness=1e-09 $X=-0.4465 $Y=1.742 $X2=-0.432 $Y2=1.742
r19 16 10 0.0462963 $w=5.4e-08 $l=2.5e-09 $layer=<ENCRYPTED_LAYER_48>
+ $thickness=1e-09 $X=-0.4493 $Y=1.742 $X2=-0.4465 $Y2=1.742
r20 2 11 1e-05 $l=2e-09 $X=-0.27 $Y=1.742 $X2=-0.268 $Y2=1.742
.ends

.subckt PM_ADDER_3bit%XI1/XI0/XI1/NET1 VSS 15 26 27 29 12 3 13 11 1 10 2
c1 1 VSS 0.00994691f $X=0.648 $Y=1.742
c2 2 VSS 0.00481414f $X=0.81 $Y=1.742
c3 3 VSS 0.00517541f $X=0.918 $Y=1.742
c4 10 VSS 0.00343917f $X=0.6335 $Y=1.742
c5 11 VSS 0.00216953f $X=0.812 $Y=1.742
c6 12 VSS 0.0267573f $X=0.9035 $Y=1.742
c7 13 VSS 0.00957578f $X=0.7965 $Y=1.76
r1 12 3 0.231482 $w=5.4e-08 $l=1.25e-08 $layer=<ENCRYPTED_LAYER_48>
+ $thickness=1e-09 $X=0.9035 $Y=1.742 $X2=0.918 $Y2=1.742
r2 29 12 0.0462963 $w=5.4e-08 $l=2.5e-09 $layer=<ENCRYPTED_LAYER_48>
+ $thickness=1e-09 $X=0.9006 $Y=1.742 $X2=0.9035 $Y2=1.742
r3 27 25 0.0462963 $w=5.4e-08 $l=2.5e-09 $layer=<ENCRYPTED_LAYER_48>
+ $thickness=1e-09 $X=0.6653 $Y=1.742 $X2=0.6625 $Y2=1.742
r4 1 25 0.268519 $w=5.4e-08 $l=1.45e-08 $layer=<ENCRYPTED_LAYER_48>
+ $thickness=1e-09 $X=0.648 $Y=1.742 $X2=0.6625 $Y2=1.742
r5 10 1 0.268519 $w=5.4e-08 $l=1.45e-08 $layer=<ENCRYPTED_LAYER_48>
+ $thickness=1e-09 $X=0.6335 $Y=1.742 $X2=0.648 $Y2=1.742
r6 26 10 0.0462963 $w=5.4e-08 $l=2.5e-09 $layer=<ENCRYPTED_LAYER_48>
+ $thickness=1e-09 $X=0.6306 $Y=1.742 $X2=0.6335 $Y2=1.742
r7 3 23 19.3796 $w=1.8e-08 $l=1.8e-08 $layer=<ENCRYPTED_LAYER_7> $X=0.918
+ $Y=1.742 $X2=0.918 $Y2=1.76
r8 1 16 19.3796 $w=1.8e-08 $l=1.8e-08 $layer=<ENCRYPTED_LAYER_7> $X=0.648
+ $Y=1.742 $X2=0.648 $Y2=1.76
r9 22 23 3.14806 $w=1.8e-08 $l=1.35e-08 $layer=M1 $thickness=3.6e-08 $X=0.9045
+ $Y=1.76 $X2=0.918 $Y2=1.76
r10 21 22 6.29612 $w=1.8e-08 $l=2.7e-08 $layer=M1 $thickness=3.6e-08 $X=0.8775
+ $Y=1.76 $X2=0.9045 $Y2=1.76
r11 20 21 8.39483 $w=1.8e-08 $l=3.6e-08 $layer=M1 $thickness=3.6e-08 $X=0.8415
+ $Y=1.76 $X2=0.8775 $Y2=1.76
r12 19 20 4.19742 $w=1.8e-08 $l=1.8e-08 $layer=M1 $thickness=3.6e-08 $X=0.8235
+ $Y=1.76 $X2=0.8415 $Y2=1.76
r13 18 19 3.14806 $w=1.8e-08 $l=1.35e-08 $layer=M1 $thickness=3.6e-08 $X=0.81
+ $Y=1.76 $X2=0.8235 $Y2=1.76
r14 16 17 17.839 $w=1.8e-08 $l=7.65e-08 $layer=M1 $thickness=3.6e-08 $X=0.648
+ $Y=1.76 $X2=0.7245 $Y2=1.76
r15 13 17 16.7897 $w=1.8e-08 $l=7.2e-08 $layer=M1 $thickness=3.6e-08 $X=0.7965
+ $Y=1.76 $X2=0.7245 $Y2=1.76
r16 13 18 3.14806 $w=1.8e-08 $l=1.35e-08 $layer=M1 $thickness=3.6e-08 $X=0.7965
+ $Y=1.76 $X2=0.81 $Y2=1.76
r17 2 18 19.3796 $w=1.8e-08 $l=1.8e-08 $layer=<ENCRYPTED_LAYER_7> $X=0.81
+ $Y=1.742 $X2=0.81 $Y2=1.76
r18 15 14 0.0462963 $w=5.4e-08 $l=2.5e-09 $layer=<ENCRYPTED_LAYER_48>
+ $thickness=1e-09 $X=0.8273 $Y=1.742 $X2=0.8245 $Y2=1.742
r19 11 14 0.231482 $w=5.4e-08 $l=1.25e-08 $layer=<ENCRYPTED_LAYER_48>
+ $thickness=1e-09 $X=0.812 $Y=1.742 $X2=0.8245 $Y2=1.742
r20 2 11 1e-05 $l=2e-09 $X=0.81 $Y=1.742 $X2=0.812 $Y2=1.742
.ends

.subckt PM_ADDER_3bit%B<0> VSS 75 60 78 83 121 126 131 155 160 165 3 6 19 23 4
+ 24 20 21 22 37 31 1 2 34 35 52 38 40 28 30 48 41 46 29 54 42 50 49 33 47 43
+ 44 45 51 5 39 55 32 53 9 7 27 26 25 36 8
c1 1 VSS 0.00220792f $X=-0.459 $Y=1.823
c2 2 VSS 0.00228104f $X=-0.459 $Y=2.245
c3 3 VSS 0.00240172f $X=-0.405 $Y=1.823
c4 4 VSS 0.00242273f $X=-0.405 $Y=2.245
c5 5 VSS 0.0021825f $X=-0.297 $Y=1.823
c6 6 VSS 0.00215709f $X=-0.297 $Y=2.245
c7 7 VSS 0.00231582f $X=0.081 $Y=2.245
c8 8 VSS 0.0023776f $X=0.135 $Y=2.245
c9 9 VSS 0.00216691f $X=0.243 $Y=2.245
c10 19 VSS 0.0473995f $X=-0.459 $Y=1.823
c11 20 VSS 0.0471169f $X=-0.459 $Y=2.245
c12 21 VSS 0.0484046f $X=-0.405 $Y=1.823
c13 22 VSS 0.0480761f $X=-0.405 $Y=2.245
c14 23 VSS 0.0468231f $X=-0.297 $Y=1.7615
c15 24 VSS 0.0465391f $X=-0.297 $Y=2.245
c16 25 VSS 0.0472863f $X=0.081 $Y=2.245
c17 26 VSS 0.0482572f $X=0.135 $Y=2.245
c18 27 VSS 0.0471469f $X=0.243 $Y=2.245
c19 28 VSS 0.00287885f $X=-0.581 $Y=1.823
c20 29 VSS 0.00284797f $X=-0.581 $Y=2.245
c21 30 VSS 0.00707198f $X=-0.526 $Y=1.731
c22 31 VSS 0.000519436f $X=-0.526 $Y=1.8157
c23 32 VSS 0.00455913f $X=-0.526 $Y=1.915
c24 33 VSS 0.00468918f $X=-0.526 $Y=2.153
c25 34 VSS 0.00048409f $X=-0.526 $Y=2.245
c26 35 VSS 0.00585478f $X=-0.526 $Y=2.337
c27 36 VSS 0.00515173f $X=0.014 $Y=2.153
c28 37 VSS 0.000621456f $X=0.014 $Y=2.245
c29 38 VSS 0.0047413f $X=0.014 $Y=2.337
c30 39 VSS 0.0381251f $X=-0.581 $Y=1.869
c31 40 VSS 0.00203041f $X=-0.5375 $Y=1.823
c32 41 VSS 0.00203832f $X=-0.556 $Y=2.245
c33 42 VSS 0.00535253f $X=-0.526 $Y=1.7915
c34 43 VSS 0.00284132f $X=-0.526 $Y=1.869
c35 44 VSS 0.0029008f $X=-0.526 $Y=2.2135
c36 45 VSS 0.00439377f $X=-0.526 $Y=2.291
c37 46 VSS 0.00507509f $X=-0.4275 $Y=1.823
c38 47 VSS 0.00471019f $X=-0.508 $Y=2.245
c39 48 VSS 0.00286252f $X=0.014 $Y=2.2135
c40 49 VSS 0.00235931f $X=0.014 $Y=2.291
c41 50 VSS 0.00553884f $X=0.032 $Y=2.245
c42 51 VSS 0.000815818f $X=-0.405 $Y=2.155
c43 52 VSS 0.0014738f $X=0.014 $Y=2.155
c44 53 VSS 0.00189548f $X=-0.405 $Y=2.245
c45 54 VSS 0.0126833f $X=-0.298 $Y=2.155
c46 55 VSS 0.00206677f $X=0.014 $Y=2.2
r1 165 164 16.6668 $w=2e-08 $l=4.9e-08 $layer=<ENCRYPTED_LAYER_23>
+ $thickness=5.6e-08 $X=0.243 $Y=2.326 $X2=0.243 $Y2=2.277
r2 27 164 11.0545 $w=2e-08 $l=3.2e-08 $layer=<ENCRYPTED_LAYER_23>
+ $thickness=5.6e-08 $X=0.243 $Y=2.245 $X2=0.243 $Y2=2.277
r3 160 161 16.6668 $w=2e-08 $l=4.9e-08 $layer=<ENCRYPTED_LAYER_23>
+ $thickness=5.6e-08 $X=0.135 $Y=2.164 $X2=0.135 $Y2=2.213
r4 26 161 11.0545 $w=2e-08 $l=3.2e-08 $layer=<ENCRYPTED_LAYER_23>
+ $thickness=5.6e-08 $X=0.135 $Y=2.245 $X2=0.135 $Y2=2.213
r5 155 156 14.6259 $w=2e-08 $l=4.3e-08 $layer=<ENCRYPTED_LAYER_23>
+ $thickness=5.6e-08 $X=0.081 $Y=2.164 $X2=0.081 $Y2=2.207
r6 153 156 7.48304 $w=2e-08 $l=2.2e-08 $layer=<ENCRYPTED_LAYER_23>
+ $thickness=5.6e-08 $X=0.081 $Y=2.229 $X2=0.081 $Y2=2.207
r7 25 153 5.61228 $w=2e-08 $l=1.6e-08 $layer=<ENCRYPTED_LAYER_23>
+ $thickness=5.6e-08 $X=0.081 $Y=2.245 $X2=0.081 $Y2=2.229
r8 9 144 19.3796 $w=1.8e-08 $l=1.8e-08 $layer=<ENCRYPTED_LAYER_4> $X=0.243
+ $Y=2.245 $X2=0.243 $Y2=2.245
r9 9 27 6.74717 $w=2e-08 $layer=<ENCRYPTED_LAYER_23> $thickness=5.2e-08
+ $X=0.243 $Y=2.245 $X2=0.243 $Y2=2.245
r10 8 142 19.3796 $w=1.8e-08 $l=1.8e-08 $layer=<ENCRYPTED_LAYER_4> $X=0.135
+ $Y=2.245 $X2=0.135 $Y2=2.245
r11 8 26 6.74717 $w=2e-08 $layer=<ENCRYPTED_LAYER_23> $thickness=5.2e-08
+ $X=0.135 $Y=2.245 $X2=0.135 $Y2=2.245
r12 7 139 19.3796 $w=1.8e-08 $l=1.8e-08 $layer=<ENCRYPTED_LAYER_4> $X=0.081
+ $Y=2.245 $X2=0.081 $Y2=2.245
r13 7 25 6.74717 $w=2e-08 $layer=<ENCRYPTED_LAYER_23> $thickness=5.2e-08
+ $X=0.081 $Y=2.245 $X2=0.081 $Y2=2.245
r14 38 49 9.54642 $w=1.8e-08 $l=4.6e-08 $layer=M1 $thickness=3.6e-08 $X=0.014
+ $Y=2.337 $X2=0.014 $Y2=2.291
r15 36 137 2.20094 $w=1.8e-08 $l=1.45e-08 $layer=M1 $thickness=3.6e-08 $X=0.014
+ $Y=2.153 $X2=0.014 $Y2=2.1675
r16 143 144 12.5922 $w=1.8e-08 $l=5.4e-08 $layer=M1 $thickness=3.6e-08 $X=0.189
+ $Y=2.245 $X2=0.243 $Y2=2.245
r17 142 143 12.5922 $w=1.8e-08 $l=5.4e-08 $layer=M1 $thickness=3.6e-08 $X=0.135
+ $Y=2.245 $X2=0.189 $Y2=2.245
r18 141 142 5.24677 $w=1.8e-08 $l=2.25e-08 $layer=M1 $thickness=3.6e-08
+ $X=0.1125 $Y=2.245 $X2=0.135 $Y2=2.245
r19 140 141 4.19742 $w=1.8e-08 $l=1.8e-08 $layer=M1 $thickness=3.6e-08
+ $X=0.0945 $Y=2.245 $X2=0.1125 $Y2=2.245
r20 139 140 3.14806 $w=1.8e-08 $l=1.35e-08 $layer=M1 $thickness=3.6e-08
+ $X=0.081 $Y=2.245 $X2=0.0945 $Y2=2.245
r21 138 139 5.71315 $w=1.8e-08 $l=2.45e-08 $layer=M1 $thickness=3.6e-08
+ $X=0.0565 $Y=2.245 $X2=0.081 $Y2=2.245
r22 50 138 5.71315 $w=1.8e-08 $l=2.45e-08 $layer=M1 $thickness=3.6e-08 $X=0.032
+ $Y=2.245 $X2=0.0565 $Y2=2.245
r23 136 137 3.38125 $w=1.8e-08 $l=1.45e-08 $layer=M1 $thickness=3.6e-08
+ $X=0.014 $Y=2.182 $X2=0.014 $Y2=2.1675
r24 48 136 7.34548 $w=1.8e-08 $l=3.15e-08 $layer=M1 $thickness=3.6e-08 $X=0.014
+ $Y=2.2135 $X2=0.014 $Y2=2.182
r25 37 135 19.5347 $w=1.8e-08 $l=1.8e-08 $layer=V1 $X=0.014 $Y=2.245 $X2=0.014
+ $Y2=2.245
r26 37 48 6.16517 $w=1.8e-08 $l=3.15e-08 $layer=M1 $thickness=3.6e-08 $X=0.014
+ $Y=2.245 $X2=0.014 $Y2=2.2135
r27 37 49 9.54642 $w=1.8e-08 $l=4.6e-08 $layer=M1 $thickness=3.6e-08 $X=0.014
+ $Y=2.245 $X2=0.014 $Y2=2.291
r28 37 50 3.01711 $w=1.8e-08 $l=1.8e-08 $layer=M1 $thickness=3.6e-08 $X=0.014
+ $Y=2.245 $X2=0.032 $Y2=2.245
r29 55 135 10.4935 $w=1.8e-08 $l=4.5e-08 $layer=M2 $thickness=3.6e-08 $X=0.014
+ $Y=2.2 $X2=0.014 $Y2=2.245
r30 52 134 6.27934 $w=1.8e-08 $l=3.4e-08 $layer=M2 $thickness=3.6e-08 $X=0.014
+ $Y=2.155 $X2=-0.02 $Y2=2.155
r31 52 55 8.84443 $w=1.8e-08 $l=4.5e-08 $layer=M2 $thickness=3.6e-08 $X=0.014
+ $Y=2.155 $X2=0.014 $Y2=2.2
r32 133 134 23.902 $w=1.8e-08 $l=1.025e-07 $layer=M2 $thickness=3.6e-08
+ $X=-0.1225 $Y=2.155 $X2=-0.02 $Y2=2.155
r33 54 133 40.9248 $w=1.8e-08 $l=1.755e-07 $layer=M2 $thickness=3.6e-08
+ $X=-0.298 $Y=2.155 $X2=-0.1225 $Y2=2.155
r34 51 118 8.84443 $w=1.8e-08 $l=4.5e-08 $layer=M2 $thickness=3.6e-08 $X=-0.405
+ $Y=2.155 $X2=-0.405 $Y2=2.2
r35 51 54 23.3022 $w=1.8e-08 $l=1.07e-07 $layer=M2 $thickness=3.6e-08 $X=-0.405
+ $Y=2.155 $X2=-0.298 $Y2=2.155
r36 131 130 16.6668 $w=2e-08 $l=4.9e-08 $layer=<ENCRYPTED_LAYER_23>
+ $thickness=5.6e-08 $X=-0.297 $Y=2.326 $X2=-0.297 $Y2=2.277
r37 24 130 11.0545 $w=2e-08 $l=3.2e-08 $layer=<ENCRYPTED_LAYER_23>
+ $thickness=5.6e-08 $X=-0.297 $Y=2.245 $X2=-0.297 $Y2=2.277
r38 126 127 16.6668 $w=2e-08 $l=4.9e-08 $layer=<ENCRYPTED_LAYER_23>
+ $thickness=5.6e-08 $X=-0.405 $Y=2.164 $X2=-0.405 $Y2=2.213
r39 22 127 11.0545 $w=2e-08 $l=3.2e-08 $layer=<ENCRYPTED_LAYER_23>
+ $thickness=5.6e-08 $X=-0.405 $Y=2.245 $X2=-0.405 $Y2=2.213
r40 121 122 14.6259 $w=2e-08 $l=4.3e-08 $layer=<ENCRYPTED_LAYER_23>
+ $thickness=5.6e-08 $X=-0.459 $Y=2.164 $X2=-0.459 $Y2=2.207
r41 119 122 7.48304 $w=2e-08 $l=2.2e-08 $layer=<ENCRYPTED_LAYER_23>
+ $thickness=5.6e-08 $X=-0.459 $Y=2.229 $X2=-0.459 $Y2=2.207
r42 20 119 5.61228 $w=2e-08 $l=1.6e-08 $layer=<ENCRYPTED_LAYER_23>
+ $thickness=5.6e-08 $X=-0.459 $Y=2.245 $X2=-0.459 $Y2=2.229
r43 53 107 19.5347 $w=1.8e-08 $l=1.8e-08 $layer=V1 $X=-0.405 $Y=2.245
+ $X2=-0.405 $Y2=2.245
r44 53 118 10.4935 $w=1.8e-08 $l=4.5e-08 $layer=M2 $thickness=3.6e-08 $X=-0.405
+ $Y=2.245 $X2=-0.405 $Y2=2.2
r45 6 109 19.3796 $w=1.8e-08 $l=1.8e-08 $layer=<ENCRYPTED_LAYER_4> $X=-0.297
+ $Y=2.245 $X2=-0.297 $Y2=2.245
r46 6 24 6.74717 $w=2e-08 $layer=<ENCRYPTED_LAYER_23> $thickness=5.2e-08
+ $X=-0.297 $Y=2.245 $X2=-0.297 $Y2=2.245
r47 4 107 19.3796 $w=1.8e-08 $l=1.8e-08 $layer=<ENCRYPTED_LAYER_4> $X=-0.405
+ $Y=2.245 $X2=-0.405 $Y2=2.245
r48 4 22 6.74717 $w=2e-08 $layer=<ENCRYPTED_LAYER_23> $thickness=5.2e-08
+ $X=-0.405 $Y=2.245 $X2=-0.405 $Y2=2.245
r49 2 104 19.3796 $w=1.8e-08 $l=1.8e-08 $layer=<ENCRYPTED_LAYER_4> $X=-0.459
+ $Y=2.245 $X2=-0.459 $Y2=2.245
r50 2 20 6.74717 $w=2e-08 $layer=<ENCRYPTED_LAYER_23> $thickness=5.2e-08
+ $X=-0.459 $Y=2.245 $X2=-0.459 $Y2=2.245
r51 35 45 9.54642 $w=1.8e-08 $l=4.6e-08 $layer=M1 $thickness=3.6e-08 $X=-0.526
+ $Y=2.337 $X2=-0.526 $Y2=2.291
r52 33 102 2.20094 $w=1.8e-08 $l=1.45e-08 $layer=M1 $thickness=3.6e-08
+ $X=-0.526 $Y=2.153 $X2=-0.526 $Y2=2.1675
r53 108 109 12.5922 $w=1.8e-08 $l=5.4e-08 $layer=M1 $thickness=3.6e-08
+ $X=-0.351 $Y=2.245 $X2=-0.297 $Y2=2.245
r54 107 108 12.5922 $w=1.8e-08 $l=5.4e-08 $layer=M1 $thickness=3.6e-08
+ $X=-0.405 $Y=2.245 $X2=-0.351 $Y2=2.245
r55 106 107 5.24677 $w=1.8e-08 $l=2.25e-08 $layer=M1 $thickness=3.6e-08
+ $X=-0.4275 $Y=2.245 $X2=-0.405 $Y2=2.245
r56 105 106 4.19742 $w=1.8e-08 $l=1.8e-08 $layer=M1 $thickness=3.6e-08
+ $X=-0.4455 $Y=2.245 $X2=-0.4275 $Y2=2.245
r57 104 105 3.14806 $w=1.8e-08 $l=1.35e-08 $layer=M1 $thickness=3.6e-08
+ $X=-0.459 $Y=2.245 $X2=-0.4455 $Y2=2.245
r58 103 104 5.71315 $w=1.8e-08 $l=2.45e-08 $layer=M1 $thickness=3.6e-08
+ $X=-0.4835 $Y=2.245 $X2=-0.459 $Y2=2.245
r59 47 103 5.71315 $w=1.8e-08 $l=2.45e-08 $layer=M1 $thickness=3.6e-08
+ $X=-0.508 $Y=2.245 $X2=-0.4835 $Y2=2.245
r60 101 102 3.38125 $w=1.8e-08 $l=1.45e-08 $layer=M1 $thickness=3.6e-08
+ $X=-0.526 $Y=2.182 $X2=-0.526 $Y2=2.1675
r61 44 101 7.34548 $w=1.8e-08 $l=3.15e-08 $layer=M1 $thickness=3.6e-08
+ $X=-0.526 $Y=2.2135 $X2=-0.526 $Y2=2.182
r62 34 100 1.50137 $w=1.8e-08 $l=1.15e-08 $layer=M1 $thickness=3.6e-08
+ $X=-0.526 $Y=2.245 $X2=-0.5375 $Y2=2.245
r63 34 44 6.16517 $w=1.8e-08 $l=3.15e-08 $layer=M1 $thickness=3.6e-08 $X=-0.526
+ $Y=2.245 $X2=-0.526 $Y2=2.2135
r64 34 45 9.54642 $w=1.8e-08 $l=4.6e-08 $layer=M1 $thickness=3.6e-08 $X=-0.526
+ $Y=2.245 $X2=-0.526 $Y2=2.291
r65 34 47 3.01711 $w=1.8e-08 $l=1.8e-08 $layer=M1 $thickness=3.6e-08 $X=-0.526
+ $Y=2.245 $X2=-0.508 $Y2=2.245
r66 41 100 4.31401 $w=1.8e-08 $l=1.85e-08 $layer=M1 $thickness=3.6e-08
+ $X=-0.556 $Y=2.245 $X2=-0.5375 $Y2=2.245
r67 29 99 9.07762 $w=1.8e-08 $l=4.6e-08 $layer=M1 $thickness=3.6e-08 $X=-0.581
+ $Y=2.245 $X2=-0.581 $Y2=2.199
r68 29 41 4.18063 $w=1.8e-08 $l=2.5e-08 $layer=M1 $thickness=3.6e-08 $X=-0.581
+ $Y=2.245 $X2=-0.556 $Y2=2.245
r69 98 99 10.7267 $w=1.8e-08 $l=4.6e-08 $layer=M1 $thickness=3.6e-08 $X=-0.581
+ $Y=2.153 $X2=-0.581 $Y2=2.199
r70 97 98 5.01358 $w=1.8e-08 $l=2.15e-08 $layer=M1 $thickness=3.6e-08 $X=-0.581
+ $Y=2.1315 $X2=-0.581 $Y2=2.153
r71 96 97 5.01358 $w=1.8e-08 $l=2.15e-08 $layer=M1 $thickness=3.6e-08 $X=-0.581
+ $Y=2.11 $X2=-0.581 $Y2=2.1315
r72 95 96 17.7224 $w=1.8e-08 $l=7.6e-08 $layer=M1 $thickness=3.6e-08 $X=-0.581
+ $Y=2.034 $X2=-0.581 $Y2=2.11
r73 94 95 17.7224 $w=1.8e-08 $l=7.6e-08 $layer=M1 $thickness=3.6e-08 $X=-0.581
+ $Y=1.958 $X2=-0.581 $Y2=2.034
r74 93 94 5.01358 $w=1.8e-08 $l=2.15e-08 $layer=M1 $thickness=3.6e-08 $X=-0.581
+ $Y=1.9365 $X2=-0.581 $Y2=1.958
r75 92 93 5.01358 $w=1.8e-08 $l=2.15e-08 $layer=M1 $thickness=3.6e-08 $X=-0.581
+ $Y=1.915 $X2=-0.581 $Y2=1.9365
r76 39 92 10.7267 $w=1.8e-08 $l=4.6e-08 $layer=M1 $thickness=3.6e-08 $X=-0.581
+ $Y=1.869 $X2=-0.581 $Y2=1.915
r77 32 43 9.54642 $w=1.8e-08 $l=4.6e-08 $layer=M1 $thickness=3.6e-08 $X=-0.526
+ $Y=1.915 $X2=-0.526 $Y2=1.869
r78 30 89 2.20094 $w=1.8e-08 $l=1.45e-08 $layer=M1 $thickness=3.6e-08 $X=-0.526
+ $Y=1.731 $X2=-0.526 $Y2=1.7455
r79 28 87 4.18063 $w=1.8e-08 $l=2.5e-08 $layer=M1 $thickness=3.6e-08 $X=-0.581
+ $Y=1.823 $X2=-0.556 $Y2=1.823
r80 28 39 9.07762 $w=1.8e-08 $l=4.6e-08 $layer=M1 $thickness=3.6e-08 $X=-0.581
+ $Y=1.823 $X2=-0.581 $Y2=1.869
r81 43 76 9.31682 $w=1.8e-08 $l=4.38e-08 $layer=M1 $thickness=3.6e-08 $X=-0.526
+ $Y=1.869 $X2=-0.526 $Y2=1.8252
r82 88 89 3.38125 $w=1.8e-08 $l=1.45e-08 $layer=M1 $thickness=3.6e-08 $X=-0.526
+ $Y=1.76 $X2=-0.526 $Y2=1.7455
r83 42 88 7.34548 $w=1.8e-08 $l=3.15e-08 $layer=M1 $thickness=3.6e-08 $X=-0.526
+ $Y=1.7915 $X2=-0.526 $Y2=1.76
r84 40 76 1.27177 $w=1.44783e-08 $l=1.17085e-08 $layer=M1 $thickness=3.6e-08
+ $X=-0.5375 $Y=1.823 $X2=-0.526 $Y2=1.8252
r85 40 87 4.31401 $w=1.8e-08 $l=1.85e-08 $layer=M1 $thickness=3.6e-08
+ $X=-0.5375 $Y=1.823 $X2=-0.556 $Y2=1.823
r86 83 84 14.6259 $w=2e-08 $l=4.3e-08 $layer=<ENCRYPTED_LAYER_23>
+ $thickness=5.6e-08 $X=-0.459 $Y=1.742 $X2=-0.459 $Y2=1.785
r87 81 84 7.48304 $w=2e-08 $l=2.2e-08 $layer=<ENCRYPTED_LAYER_23>
+ $thickness=5.6e-08 $X=-0.459 $Y=1.807 $X2=-0.459 $Y2=1.785
r88 19 81 5.61228 $w=2e-08 $l=1.6e-08 $layer=<ENCRYPTED_LAYER_23>
+ $thickness=5.6e-08 $X=-0.459 $Y=1.823 $X2=-0.459 $Y2=1.807
r89 78 79 16.6668 $w=2e-08 $l=4.9e-08 $layer=<ENCRYPTED_LAYER_23>
+ $thickness=5.6e-08 $X=-0.405 $Y=1.742 $X2=-0.405 $Y2=1.791
r90 21 79 11.0545 $w=2e-08 $l=3.2e-08 $layer=<ENCRYPTED_LAYER_23>
+ $thickness=5.6e-08 $X=-0.405 $Y=1.823 $X2=-0.405 $Y2=1.791
r91 75 76 0.739822 $w=1.8e-08 $l=7.2e-09 $layer=M1 $thickness=3.6e-08 $X=-0.526
+ $Y=1.818 $X2=-0.526 $Y2=1.8252
r92 75 31 0.2296 $w=1.8e-08 $l=2.3e-09 $layer=M1 $thickness=3.6e-08 $X=-0.526
+ $Y=1.818 $X2=-0.526 $Y2=1.8157
r93 31 42 5.42535 $w=1.8e-08 $l=2.42e-08 $layer=M1 $thickness=3.6e-08 $X=-0.526
+ $Y=1.8157 $X2=-0.526 $Y2=1.7915
r94 1 68 19.3796 $w=1.8e-08 $l=1.8e-08 $layer=<ENCRYPTED_LAYER_4> $X=-0.459
+ $Y=1.823 $X2=-0.459 $Y2=1.823
r95 1 19 6.74717 $w=2e-08 $layer=<ENCRYPTED_LAYER_23> $thickness=5.2e-08
+ $X=-0.459 $Y=1.823 $X2=-0.459 $Y2=1.823
r96 3 64 19.3796 $w=1.8e-08 $l=1.8e-08 $layer=<ENCRYPTED_LAYER_4> $X=-0.405
+ $Y=1.823 $X2=-0.405 $Y2=1.823
r97 3 21 6.74717 $w=2e-08 $layer=<ENCRYPTED_LAYER_23> $thickness=5.2e-08
+ $X=-0.405 $Y=1.823 $X2=-0.405 $Y2=1.823
r98 70 76 2.78751 $w=1.575e-08 $l=1.81339e-08 $layer=M1 $thickness=3.6e-08
+ $X=-0.508 $Y=1.823 $X2=-0.526 $Y2=1.8252
r99 68 69 3.14806 $w=1.8e-08 $l=1.35e-08 $layer=M1 $thickness=3.6e-08 $X=-0.459
+ $Y=1.823 $X2=-0.4455 $Y2=1.823
r100 67 68 5.71315 $w=1.8e-08 $l=2.45e-08 $layer=M1 $thickness=3.6e-08
+ $X=-0.4835 $Y=1.823 $X2=-0.459 $Y2=1.823
r101 67 70 5.71315 $w=1.8e-08 $l=2.45e-08 $layer=M1 $thickness=3.6e-08
+ $X=-0.4835 $Y=1.823 $X2=-0.508 $Y2=1.823
r102 65 66 12.5922 $w=1.8e-08 $l=5.4e-08 $layer=M1 $thickness=3.6e-08 $X=-0.351
+ $Y=1.823 $X2=-0.297 $Y2=1.823
r103 64 65 12.5922 $w=1.8e-08 $l=5.4e-08 $layer=M1 $thickness=3.6e-08 $X=-0.405
+ $Y=1.823 $X2=-0.351 $Y2=1.823
r104 46 64 5.24677 $w=1.8e-08 $l=2.25e-08 $layer=M1 $thickness=3.6e-08
+ $X=-0.4275 $Y=1.823 $X2=-0.405 $Y2=1.823
r105 46 69 4.19742 $w=1.8e-08 $l=1.8e-08 $layer=M1 $thickness=3.6e-08
+ $X=-0.4275 $Y=1.823 $X2=-0.4455 $Y2=1.823
r106 5 58 6.74717 $w=2e-08 $layer=<ENCRYPTED_LAYER_23> $thickness=5.2e-08
+ $X=-0.297 $Y=1.823 $X2=-0.297 $Y2=1.823
r107 5 66 19.3796 $w=1.8e-08 $l=1.8e-08 $layer=<ENCRYPTED_LAYER_4> $X=-0.297
+ $Y=1.823 $X2=-0.297 $Y2=1.823
r108 60 59 16.6668 $w=2e-08 $l=4.9e-08 $layer=<ENCRYPTED_LAYER_23>
+ $thickness=5.6e-08 $X=-0.297 $Y=1.904 $X2=-0.297 $Y2=1.855
r109 58 59 11.0545 $w=2e-08 $l=3.2e-08 $layer=<ENCRYPTED_LAYER_23>
+ $thickness=5.6e-08 $X=-0.297 $Y=1.823 $X2=-0.297 $Y2=1.855
r110 23 58 21.0886 $w=2e-08 $l=6.15e-08 $layer=<ENCRYPTED_LAYER_23>
+ $thickness=5.6e-08 $X=-0.297 $Y=1.7615 $X2=-0.297 $Y2=1.823
.ends

.subckt PM_ADDER_3bit%XI0/XI0/XI3/NET1 VSS 15 26 27 29 11 10 1 2 13 12 3
c1 1 VSS 0.00994952f $X=0.648 $Y=2.164
c2 2 VSS 0.00499812f $X=0.81 $Y=2.164
c3 3 VSS 0.0049285f $X=0.918 $Y=2.164
c4 10 VSS 0.00368361f $X=0.6335 $Y=2.164
c5 11 VSS 0.00244685f $X=0.812 $Y=2.164
c6 12 VSS 0.0272662f $X=0.9035 $Y=2.164
c7 13 VSS 0.0101458f $X=0.7965 $Y=2.182
r1 12 3 0.231482 $w=5.4e-08 $l=1.25e-08 $layer=<ENCRYPTED_LAYER_48>
+ $thickness=1e-09 $X=0.9035 $Y=2.164 $X2=0.918 $Y2=2.164
r2 29 12 0.0462963 $w=5.4e-08 $l=2.5e-09 $layer=<ENCRYPTED_LAYER_48>
+ $thickness=1e-09 $X=0.9006 $Y=2.164 $X2=0.9035 $Y2=2.164
r3 27 25 0.0462963 $w=5.4e-08 $l=2.5e-09 $layer=<ENCRYPTED_LAYER_48>
+ $thickness=1e-09 $X=0.6653 $Y=2.164 $X2=0.6625 $Y2=2.164
r4 1 25 0.268519 $w=5.4e-08 $l=1.45e-08 $layer=<ENCRYPTED_LAYER_48>
+ $thickness=1e-09 $X=0.648 $Y=2.164 $X2=0.6625 $Y2=2.164
r5 10 1 0.268519 $w=5.4e-08 $l=1.45e-08 $layer=<ENCRYPTED_LAYER_48>
+ $thickness=1e-09 $X=0.6335 $Y=2.164 $X2=0.648 $Y2=2.164
r6 26 10 0.0462963 $w=5.4e-08 $l=2.5e-09 $layer=<ENCRYPTED_LAYER_48>
+ $thickness=1e-09 $X=0.6306 $Y=2.164 $X2=0.6335 $Y2=2.164
r7 3 23 19.3796 $w=1.8e-08 $l=1.8e-08 $layer=<ENCRYPTED_LAYER_7> $X=0.918
+ $Y=2.164 $X2=0.918 $Y2=2.182
r8 1 16 19.3796 $w=1.8e-08 $l=1.8e-08 $layer=<ENCRYPTED_LAYER_7> $X=0.648
+ $Y=2.164 $X2=0.648 $Y2=2.182
r9 22 23 3.14806 $w=1.8e-08 $l=1.35e-08 $layer=M1 $thickness=3.6e-08 $X=0.9045
+ $Y=2.182 $X2=0.918 $Y2=2.182
r10 21 22 6.29612 $w=1.8e-08 $l=2.7e-08 $layer=M1 $thickness=3.6e-08 $X=0.8775
+ $Y=2.182 $X2=0.9045 $Y2=2.182
r11 20 21 8.39483 $w=1.8e-08 $l=3.6e-08 $layer=M1 $thickness=3.6e-08 $X=0.8415
+ $Y=2.182 $X2=0.8775 $Y2=2.182
r12 19 20 4.19742 $w=1.8e-08 $l=1.8e-08 $layer=M1 $thickness=3.6e-08 $X=0.8235
+ $Y=2.182 $X2=0.8415 $Y2=2.182
r13 18 19 3.14806 $w=1.8e-08 $l=1.35e-08 $layer=M1 $thickness=3.6e-08 $X=0.81
+ $Y=2.182 $X2=0.8235 $Y2=2.182
r14 16 17 17.839 $w=1.8e-08 $l=7.65e-08 $layer=M1 $thickness=3.6e-08 $X=0.648
+ $Y=2.182 $X2=0.7245 $Y2=2.182
r15 13 17 16.7897 $w=1.8e-08 $l=7.2e-08 $layer=M1 $thickness=3.6e-08 $X=0.7965
+ $Y=2.182 $X2=0.7245 $Y2=2.182
r16 13 18 3.14806 $w=1.8e-08 $l=1.35e-08 $layer=M1 $thickness=3.6e-08 $X=0.7965
+ $Y=2.182 $X2=0.81 $Y2=2.182
r17 2 18 19.3796 $w=1.8e-08 $l=1.8e-08 $layer=<ENCRYPTED_LAYER_7> $X=0.81
+ $Y=2.164 $X2=0.81 $Y2=2.182
r18 15 14 0.0462963 $w=5.4e-08 $l=2.5e-09 $layer=<ENCRYPTED_LAYER_48>
+ $thickness=1e-09 $X=0.8273 $Y=2.164 $X2=0.8245 $Y2=2.164
r19 11 14 0.231482 $w=5.4e-08 $l=1.25e-08 $layer=<ENCRYPTED_LAYER_48>
+ $thickness=1e-09 $X=0.812 $Y=2.164 $X2=0.8245 $Y2=2.164
r20 2 11 1e-05 $l=2e-09 $X=0.81 $Y=2.164 $X2=0.812 $Y2=2.164
.ends

.subckt PM_ADDER_3bit%XI2/XI0/XI1/NET1 VSS 16 17 27 29 12 3 13 11 1 10 2
c1 1 VSS 0.00994438f $X=1.188 $Y=0.898
c2 2 VSS 0.00481287f $X=1.35 $Y=0.898
c3 3 VSS 0.00517405f $X=1.458 $Y=0.898
c4 10 VSS 0.00343827f $X=1.1735 $Y=0.898
c5 11 VSS 0.00216896f $X=1.352 $Y=0.898
c6 12 VSS 0.0267503f $X=1.4435 $Y=0.898
c7 13 VSS 0.00957281f $X=1.188 $Y=0.916
r1 12 3 0.231482 $w=5.4e-08 $l=1.25e-08 $layer=<ENCRYPTED_LAYER_48>
+ $thickness=1e-09 $X=1.4435 $Y=0.898 $X2=1.458 $Y2=0.898
r2 29 12 0.0462963 $w=5.4e-08 $l=2.5e-09 $layer=<ENCRYPTED_LAYER_48>
+ $thickness=1e-09 $X=1.4406 $Y=0.898 $X2=1.4435 $Y2=0.898
r3 27 26 0.0462963 $w=5.4e-08 $l=2.5e-09 $layer=<ENCRYPTED_LAYER_48>
+ $thickness=1e-09 $X=1.3673 $Y=0.898 $X2=1.3645 $Y2=0.898
r4 11 26 0.231482 $w=5.4e-08 $l=1.25e-08 $layer=<ENCRYPTED_LAYER_48>
+ $thickness=1e-09 $X=1.352 $Y=0.898 $X2=1.3645 $Y2=0.898
r5 3 25 19.3796 $w=1.8e-08 $l=1.8e-08 $layer=<ENCRYPTED_LAYER_7> $X=1.458
+ $Y=0.898 $X2=1.458 $Y2=0.916
r6 2 20 19.3796 $w=1.8e-08 $l=1.8e-08 $layer=<ENCRYPTED_LAYER_7> $X=1.35
+ $Y=0.898 $X2=1.35 $Y2=0.916
r7 24 25 3.14806 $w=1.8e-08 $l=1.35e-08 $layer=M1 $thickness=3.6e-08 $X=1.4445
+ $Y=0.916 $X2=1.458 $Y2=0.916
r8 23 24 6.29612 $w=1.8e-08 $l=2.7e-08 $layer=M1 $thickness=3.6e-08 $X=1.4175
+ $Y=0.916 $X2=1.4445 $Y2=0.916
r9 22 23 8.39483 $w=1.8e-08 $l=3.6e-08 $layer=M1 $thickness=3.6e-08 $X=1.3815
+ $Y=0.916 $X2=1.4175 $Y2=0.916
r10 21 22 4.19742 $w=1.8e-08 $l=1.8e-08 $layer=M1 $thickness=3.6e-08 $X=1.3635
+ $Y=0.916 $X2=1.3815 $Y2=0.916
r11 20 21 3.14806 $w=1.8e-08 $l=1.35e-08 $layer=M1 $thickness=3.6e-08 $X=1.35
+ $Y=0.916 $X2=1.3635 $Y2=0.916
r12 19 20 3.14806 $w=1.8e-08 $l=1.35e-08 $layer=M1 $thickness=3.6e-08 $X=1.3365
+ $Y=0.916 $X2=1.35 $Y2=0.916
r13 18 19 16.7897 $w=1.8e-08 $l=7.2e-08 $layer=M1 $thickness=3.6e-08 $X=1.2645
+ $Y=0.916 $X2=1.3365 $Y2=0.916
r14 13 18 17.839 $w=1.8e-08 $l=7.65e-08 $layer=M1 $thickness=3.6e-08 $X=1.188
+ $Y=0.916 $X2=1.2645 $Y2=0.916
r15 1 13 19.3796 $w=1.8e-08 $l=1.8e-08 $layer=<ENCRYPTED_LAYER_7> $X=1.188
+ $Y=0.898 $X2=1.188 $Y2=0.916
r16 17 15 0.0462963 $w=5.4e-08 $l=2.5e-09 $layer=<ENCRYPTED_LAYER_48>
+ $thickness=1e-09 $X=1.2053 $Y=0.898 $X2=1.2025 $Y2=0.898
r17 1 15 0.268519 $w=5.4e-08 $l=1.45e-08 $layer=<ENCRYPTED_LAYER_48>
+ $thickness=1e-09 $X=1.188 $Y=0.898 $X2=1.2025 $Y2=0.898
r18 10 1 0.268519 $w=5.4e-08 $l=1.45e-08 $layer=<ENCRYPTED_LAYER_48>
+ $thickness=1e-09 $X=1.1735 $Y=0.898 $X2=1.188 $Y2=0.898
r19 16 10 0.0462963 $w=5.4e-08 $l=2.5e-09 $layer=<ENCRYPTED_LAYER_48>
+ $thickness=1e-09 $X=1.1706 $Y=0.898 $X2=1.1735 $Y2=0.898
r20 2 11 1e-05 $l=2e-09 $X=1.35 $Y=0.898 $X2=1.352 $Y2=0.898
.ends

.subckt PM_ADDER_3bit%A<1> VSS 70 37 41 52 74 77 81 90 93 97 27 28 22 4 14 16
+ 15 13 24 23 33 32 19 20 31 29 2 1 30 17 18 21 25 26 5 6 3
c1 1 VSS 0.00345113f $X=0.297 $Y=0.979
c2 2 VSS 0.0034684f $X=0.297 $Y=1.401
c3 3 VSS 0.00480534f $X=0.351 $Y=0.979
c4 4 VSS 0.00448207f $X=0.3405 $Y=1.401
c5 5 VSS 0.00345134f $X=0.837 $Y=1.823
c6 6 VSS 0.00476616f $X=0.891 $Y=1.823
c7 13 VSS 0.034005f $X=0.297 $Y=0.979
c8 14 VSS 0.0348186f $X=0.297 $Y=1.401
c9 15 VSS 0.0481434f $X=0.351 $Y=0.979
c10 16 VSS 0.0481834f $X=0.351 $Y=1.401
c11 17 VSS 0.0347662f $X=0.837 $Y=1.7125
c12 18 VSS 0.0487634f $X=0.891 $Y=1.823
c13 19 VSS 0.00387239f $X=0.298 $Y=0.979
c14 20 VSS 0.0033236f $X=0.297 $Y=1.401
c15 21 VSS 0.00408344f $X=0.838 $Y=1.823
c16 22 VSS 0.00161569f $X=0.081 $Y=0.979
c17 23 VSS 0.00412937f $X=0.081 $Y=1.59
c18 24 VSS 0.00166291f $X=0.486 $Y=1.401
c19 25 VSS 0.00151053f $X=0.486 $Y=1.59
c20 26 VSS 0.00390567f $X=0.486 $Y=1.823
c21 27 VSS 0.0191907f $X=0.081 $Y=1.4955
c22 28 VSS 0.00527375f $X=0.19 $Y=0.979
c23 29 VSS 0.0162757f $X=0.4085 $Y=1.59
c24 30 VSS 0.00225418f $X=0.349 $Y=1.401
c25 31 VSS 0.00355587f $X=0.486 $Y=1.4955
c26 32 VSS 0.00533872f $X=0.486 $Y=1.7065
c27 33 VSS 0.00836593f $X=0.6625 $Y=1.823
r1 97 98 14.6259 $w=2e-08 $l=4.3e-08 $layer=<ENCRYPTED_LAYER_23>
+ $thickness=5.6e-08 $X=0.351 $Y=0.898 $X2=0.351 $Y2=0.941
r2 95 98 7.48304 $w=2e-08 $l=2.2e-08 $layer=<ENCRYPTED_LAYER_23>
+ $thickness=5.6e-08 $X=0.351 $Y=0.963 $X2=0.351 $Y2=0.941
r3 15 95 5.61228 $w=2e-08 $l=1.6e-08 $layer=<ENCRYPTED_LAYER_23>
+ $thickness=5.6e-08 $X=0.351 $Y=0.979 $X2=0.351 $Y2=0.963
r4 93 92 16.6668 $w=2e-08 $l=4.9e-08 $layer=<ENCRYPTED_LAYER_23>
+ $thickness=5.6e-08 $X=0.297 $Y=1.06 $X2=0.297 $Y2=1.011
r5 90 91 16.6668 $w=2e-08 $l=4.9e-08 $layer=<ENCRYPTED_LAYER_23>
+ $thickness=5.6e-08 $X=0.297 $Y=0.898 $X2=0.297 $Y2=0.947
r6 13 91 11.0545 $w=2e-08 $l=3.2e-08 $layer=<ENCRYPTED_LAYER_23>
+ $thickness=5.6e-08 $X=0.297 $Y=0.979 $X2=0.297 $Y2=0.947
r7 13 92 11.0545 $w=2e-08 $l=3.2e-08 $layer=<ENCRYPTED_LAYER_23>
+ $thickness=5.6e-08 $X=0.297 $Y=0.979 $X2=0.297 $Y2=1.011
r8 3 72 19.3796 $w=1.8e-08 $l=1.8e-08 $layer=<ENCRYPTED_LAYER_4> $X=0.351
+ $Y=0.979 $X2=0.351 $Y2=0.979
r9 3 15 6.74717 $w=2e-08 $layer=<ENCRYPTED_LAYER_23> $thickness=5.2e-08
+ $X=0.351 $Y=0.979 $X2=0.351 $Y2=0.979
r10 1 19 19.3796 $w=1.8e-08 $l=1.8e-08 $layer=<ENCRYPTED_LAYER_4> $X=0.297
+ $Y=0.979 $X2=0.298 $Y2=0.979
r11 1 13 6.74717 $w=2e-08 $layer=<ENCRYPTED_LAYER_23> $thickness=5.2e-08
+ $X=0.297 $Y=0.979 $X2=0.297 $Y2=0.979
r12 81 82 14.6259 $w=2e-08 $l=4.3e-08 $layer=<ENCRYPTED_LAYER_23>
+ $thickness=5.6e-08 $X=0.351 $Y=1.32 $X2=0.351 $Y2=1.363
r13 79 82 7.48304 $w=2e-08 $l=2.2e-08 $layer=<ENCRYPTED_LAYER_23>
+ $thickness=5.6e-08 $X=0.351 $Y=1.385 $X2=0.351 $Y2=1.363
r14 16 67 6.74717 $w=2e-08 $layer=<ENCRYPTED_LAYER_23> $thickness=5.2e-08
+ $X=0.351 $Y=1.401 $X2=0.351 $Y2=1.401
r15 16 79 5.61228 $w=2e-08 $l=1.6e-08 $layer=<ENCRYPTED_LAYER_23>
+ $thickness=5.6e-08 $X=0.351 $Y=1.401 $X2=0.351 $Y2=1.385
r16 77 76 16.6668 $w=2e-08 $l=4.9e-08 $layer=<ENCRYPTED_LAYER_23>
+ $thickness=5.6e-08 $X=0.297 $Y=1.482 $X2=0.297 $Y2=1.433
r17 74 75 16.6668 $w=2e-08 $l=4.9e-08 $layer=<ENCRYPTED_LAYER_23>
+ $thickness=5.6e-08 $X=0.297 $Y=1.32 $X2=0.297 $Y2=1.369
r18 14 75 11.0545 $w=2e-08 $l=3.2e-08 $layer=<ENCRYPTED_LAYER_23>
+ $thickness=5.6e-08 $X=0.297 $Y=1.401 $X2=0.297 $Y2=1.369
r19 14 76 11.0545 $w=2e-08 $l=3.2e-08 $layer=<ENCRYPTED_LAYER_23>
+ $thickness=5.6e-08 $X=0.297 $Y=1.401 $X2=0.297 $Y2=1.433
r20 71 72 4.13912 $w=1.8e-08 $l=1.78e-08 $layer=M1 $thickness=3.6e-08 $X=0.3332
+ $Y=0.979 $X2=0.351 $Y2=0.979
r21 70 71 2.15701 $w=1.8e-08 $l=9.2e-09 $layer=M1 $thickness=3.6e-08 $X=0.324
+ $Y=0.979 $X2=0.3332 $Y2=0.979
r22 70 69 1.92382 $w=1.8e-08 $l=8.3e-09 $layer=M1 $thickness=3.6e-08 $X=0.324
+ $Y=0.979 $X2=0.3157 $Y2=0.979
r23 19 69 4.13912 $w=1.8e-08 $l=1.77e-08 $layer=M1 $thickness=3.6e-08 $X=0.298
+ $Y=0.979 $X2=0.3157 $Y2=0.979
r24 19 64 19.5347 $w=1.8e-08 $l=1.8e-08 $layer=V1 $X=0.298 $Y=0.979 $X2=0.299
+ $Y2=0.979
r25 4 67 3.67391 $w=2e-08 $l=1.05e-08 $layer=LIG $thickness=4.8e-08 $X=0.3405
+ $Y=1.401 $X2=0.351 $Y2=1.401