* Design:	ADDER
* Created:	"Thu Dec 8 2022"
* Vendor:	"Mentor Graphics Corporation"
* Program:	"Calibre xACT 3D"
* Version:	"v2017.4_19.14"
* Corner Name: typical_27
* Nominal Temperature: 25C
* Circuit Temperature: 27C
* 
* Integrated TICER reduction is not enabled.
* SHORT DELAY THRESHOLD: 2e-15
* Fill Mode: NG
* PEX REDUCE CC ABSOLUTE : 1
* PEX REDUCE CC RELATIVE : 0.01
* Delta transform mode : 344834

* .include "ADDER.pex.netlist.pex"

* Start of included file ADDER.pex.netlist.pex

.subckt PM_ADDER%XI0/XI1/NET1 VSS 16 17 27 29 12 3 13 11 1 10 2
c1 1 VSS 0.00995271f $X=0.648 $Y=0.898
c2 2 VSS 0.00481828f $X=0.81 $Y=0.898
c3 3 VSS 0.00522363f $X=0.918 $Y=0.898
c4 10 VSS 0.00344277f $X=0.6335 $Y=0.898
c5 11 VSS 0.00217221f $X=0.812 $Y=0.898
c6 12 VSS 0.0267857f $X=0.9035 $Y=0.898
c7 13 VSS 0.00923516f $X=0.648 $Y=0.916
r1 12 3 0.231482 $w=5.4e-08 $l=1.25e-08 $layer=<ENCRYPTED_LAYER_48>
+ $thickness=1e-09 $X=0.9035 $Y=0.898 $X2=0.918 $Y2=0.898
r2 29 12 0.0462963 $w=5.4e-08 $l=2.5e-09 $layer=<ENCRYPTED_LAYER_48>
+ $thickness=1e-09 $X=0.9006 $Y=0.898 $X2=0.9035 $Y2=0.898
r3 27 26 0.0462963 $w=5.4e-08 $l=2.5e-09 $layer=<ENCRYPTED_LAYER_48>
+ $thickness=1e-09 $X=0.8273 $Y=0.898 $X2=0.8245 $Y2=0.898
r4 11 26 0.231482 $w=5.4e-08 $l=1.25e-08 $layer=<ENCRYPTED_LAYER_48>
+ $thickness=1e-09 $X=0.812 $Y=0.898 $X2=0.8245 $Y2=0.898
r5 3 25 19.3796 $w=1.8e-08 $l=1.8e-08 $layer=<ENCRYPTED_LAYER_7> $X=0.918
+ $Y=0.898 $X2=0.918 $Y2=0.916
r6 2 20 19.3796 $w=1.8e-08 $l=1.8e-08 $layer=<ENCRYPTED_LAYER_7> $X=0.81
+ $Y=0.898 $X2=0.81 $Y2=0.916
r7 24 25 3.14806 $w=1.8e-08 $l=1.35e-08 $layer=M1 $thickness=3.6e-08 $X=0.9045
+ $Y=0.916 $X2=0.918 $Y2=0.916
r8 23 24 6.29612 $w=1.8e-08 $l=2.7e-08 $layer=M1 $thickness=3.6e-08 $X=0.8775
+ $Y=0.916 $X2=0.9045 $Y2=0.916
r9 22 23 8.39483 $w=1.8e-08 $l=3.6e-08 $layer=M1 $thickness=3.6e-08 $X=0.8415
+ $Y=0.916 $X2=0.8775 $Y2=0.916
r10 21 22 4.19742 $w=1.8e-08 $l=1.8e-08 $layer=M1 $thickness=3.6e-08 $X=0.8235
+ $Y=0.916 $X2=0.8415 $Y2=0.916
r11 20 21 3.14806 $w=1.8e-08 $l=1.35e-08 $layer=M1 $thickness=3.6e-08 $X=0.81
+ $Y=0.916 $X2=0.8235 $Y2=0.916
r12 19 20 3.14806 $w=1.8e-08 $l=1.35e-08 $layer=M1 $thickness=3.6e-08 $X=0.7965
+ $Y=0.916 $X2=0.81 $Y2=0.916
r13 18 19 16.7897 $w=1.8e-08 $l=7.2e-08 $layer=M1 $thickness=3.6e-08 $X=0.7245
+ $Y=0.916 $X2=0.7965 $Y2=0.916
r14 13 18 17.839 $w=1.8e-08 $l=7.65e-08 $layer=M1 $thickness=3.6e-08 $X=0.648
+ $Y=0.916 $X2=0.7245 $Y2=0.916
r15 1 13 19.3796 $w=1.8e-08 $l=1.8e-08 $layer=<ENCRYPTED_LAYER_7> $X=0.648
+ $Y=0.898 $X2=0.648 $Y2=0.916
r16 17 15 0.0462963 $w=5.4e-08 $l=2.5e-09 $layer=<ENCRYPTED_LAYER_48>
+ $thickness=1e-09 $X=0.6653 $Y=0.898 $X2=0.6625 $Y2=0.898
r17 1 15 0.268519 $w=5.4e-08 $l=1.45e-08 $layer=<ENCRYPTED_LAYER_48>
+ $thickness=1e-09 $X=0.648 $Y=0.898 $X2=0.6625 $Y2=0.898
r18 10 1 0.268519 $w=5.4e-08 $l=1.45e-08 $layer=<ENCRYPTED_LAYER_48>
+ $thickness=1e-09 $X=0.6335 $Y=0.898 $X2=0.648 $Y2=0.898
r19 16 10 0.0462963 $w=5.4e-08 $l=2.5e-09 $layer=<ENCRYPTED_LAYER_48>
+ $thickness=1e-09 $X=0.6306 $Y=0.898 $X2=0.6335 $Y2=0.898
r20 2 11 1e-05 $l=2e-09 $X=0.81 $Y=0.898 $X2=0.812 $Y2=0.898
.ends

.subckt PM_ADDER%XI0/XI2/NET1 VSS 16 17 27 29 11 10 1 2 13 12 3
c1 1 VSS 0.010126f $X=0.648 $Y=0.476
c2 2 VSS 0.00488686f $X=0.81 $Y=0.476
c3 3 VSS 0.00552744f $X=0.918 $Y=0.476
c4 10 VSS 0.00345384f $X=0.6335 $Y=0.476
c5 11 VSS 0.00219118f $X=0.812 $Y=0.476
c6 12 VSS 0.0271307f $X=0.9035 $Y=0.476
c7 13 VSS 0.010343f $X=0.648 $Y=0.494
r1 12 3 0.231482 $w=5.4e-08 $l=1.25e-08 $layer=<ENCRYPTED_LAYER_48>
+ $thickness=1e-09 $X=0.9035 $Y=0.476 $X2=0.918 $Y2=0.476
r2 29 12 0.0462963 $w=5.4e-08 $l=2.5e-09 $layer=<ENCRYPTED_LAYER_48>
+ $thickness=1e-09 $X=0.9006 $Y=0.476 $X2=0.9035 $Y2=0.476
r3 27 26 0.0462963 $w=5.4e-08 $l=2.5e-09 $layer=<ENCRYPTED_LAYER_48>
+ $thickness=1e-09 $X=0.8273 $Y=0.476 $X2=0.8245 $Y2=0.476
r4 11 26 0.231482 $w=5.4e-08 $l=1.25e-08 $layer=<ENCRYPTED_LAYER_48>
+ $thickness=1e-09 $X=0.812 $Y=0.476 $X2=0.8245 $Y2=0.476
r5 3 25 19.3796 $w=1.8e-08 $l=1.8e-08 $layer=<ENCRYPTED_LAYER_7> $X=0.918
+ $Y=0.476 $X2=0.918 $Y2=0.494
r6 2 20 19.3796 $w=1.8e-08 $l=1.8e-08 $layer=<ENCRYPTED_LAYER_7> $X=0.81
+ $Y=0.476 $X2=0.81 $Y2=0.494
r7 24 25 3.14806 $w=1.8e-08 $l=1.35e-08 $layer=M1 $thickness=3.6e-08 $X=0.9045
+ $Y=0.494 $X2=0.918 $Y2=0.494
r8 23 24 6.29612 $w=1.8e-08 $l=2.7e-08 $layer=M1 $thickness=3.6e-08 $X=0.8775
+ $Y=0.494 $X2=0.9045 $Y2=0.494
r9 22 23 8.39483 $w=1.8e-08 $l=3.6e-08 $layer=M1 $thickness=3.6e-08 $X=0.8415
+ $Y=0.494 $X2=0.8775 $Y2=0.494
r10 21 22 4.19742 $w=1.8e-08 $l=1.8e-08 $layer=M1 $thickness=3.6e-08 $X=0.8235
+ $Y=0.494 $X2=0.8415 $Y2=0.494
r11 20 21 3.14806 $w=1.8e-08 $l=1.35e-08 $layer=M1 $thickness=3.6e-08 $X=0.81
+ $Y=0.494 $X2=0.8235 $Y2=0.494
r12 19 20 3.14806 $w=1.8e-08 $l=1.35e-08 $layer=M1 $thickness=3.6e-08 $X=0.7965
+ $Y=0.494 $X2=0.81 $Y2=0.494
r13 18 19 16.7897 $w=1.8e-08 $l=7.2e-08 $layer=M1 $thickness=3.6e-08 $X=0.7245
+ $Y=0.494 $X2=0.7965 $Y2=0.494
r14 13 18 17.839 $w=1.8e-08 $l=7.65e-08 $layer=M1 $thickness=3.6e-08 $X=0.648
+ $Y=0.494 $X2=0.7245 $Y2=0.494
r15 1 13 19.3796 $w=1.8e-08 $l=1.8e-08 $layer=<ENCRYPTED_LAYER_7> $X=0.648
+ $Y=0.476 $X2=0.648 $Y2=0.494
r16 17 15 0.0462963 $w=5.4e-08 $l=2.5e-09 $layer=<ENCRYPTED_LAYER_48>
+ $thickness=1e-09 $X=0.6653 $Y=0.476 $X2=0.6625 $Y2=0.476
r17 1 15 0.268519 $w=5.4e-08 $l=1.45e-08 $layer=<ENCRYPTED_LAYER_48>
+ $thickness=1e-09 $X=0.648 $Y=0.476 $X2=0.6625 $Y2=0.476
r18 10 1 0.268519 $w=5.4e-08 $l=1.45e-08 $layer=<ENCRYPTED_LAYER_48>
+ $thickness=1e-09 $X=0.6335 $Y=0.476 $X2=0.648 $Y2=0.476
r19 16 10 0.0462963 $w=5.4e-08 $l=2.5e-09 $layer=<ENCRYPTED_LAYER_48>
+ $thickness=1e-09 $X=0.6306 $Y=0.476 $X2=0.6335 $Y2=0.476
r20 2 11 1e-05 $l=2e-09 $X=0.81 $Y=0.476 $X2=0.812 $Y2=0.476
.ends

.subckt PM_ADDER%S VSS 23 16 17 32 33 8 7 2 1 11 13 12
c1 1 VSS 0.0113149f $X=2.97 $Y=0.638
c2 2 VSS 0.00528899f $X=3.024 $Y=0.476
c3 7 VSS 0.00205687f $X=3.0095 $Y=0.476
c4 8 VSS 0.0035523f $X=2.9555 $Y=0.638
c5 9 VSS 0.00284414f $X=3.122 $Y=0.458
c6 10 VSS 0.00297232f $X=3.122 $Y=0.656
c7 11 VSS 0.0169054f $X=3.1 $Y=0.656
c8 12 VSS 0.00889156f $X=3.024 $Y=0.458
c9 13 VSS 0.00531969f $X=3.122 $Y=0.476
r1 33 31 0.0462963 $w=5.4e-08 $l=2.5e-09 $layer=<ENCRYPTED_LAYER_49>
+ $thickness=1e-09 $X=2.9873 $Y=0.638 $X2=2.9845 $Y2=0.638
r2 1 31 0.268519 $w=5.4e-08 $l=1.45e-08 $layer=<ENCRYPTED_LAYER_49>
+ $thickness=1e-09 $X=2.97 $Y=0.638 $X2=2.9845 $Y2=0.638
r3 8 1 0.268519 $w=5.4e-08 $l=1.45e-08 $layer=<ENCRYPTED_LAYER_49>
+ $thickness=1e-09 $X=2.9555 $Y=0.638 $X2=2.97 $Y2=0.638
r4 32 8 0.0462963 $w=5.4e-08 $l=2.5e-09 $layer=<ENCRYPTED_LAYER_49>
+ $thickness=1e-09 $X=2.9526 $Y=0.638 $X2=2.9555 $Y2=0.638
r5 1 28 19.3796 $w=1.8e-08 $l=1.8e-08 $layer=<ENCRYPTED_LAYER_7> $X=2.97
+ $Y=0.638 $X2=2.97 $Y2=0.656
r6 28 29 3.14806 $w=1.8e-08 $l=1.35e-08 $layer=M1 $thickness=3.6e-08 $X=2.97
+ $Y=0.656 $X2=2.9835 $Y2=0.656
r7 27 29 9.44419 $w=1.8e-08 $l=4.05e-08 $layer=M1 $thickness=3.6e-08 $X=3.024
+ $Y=0.656 $X2=2.9835 $Y2=0.656
r8 26 27 11.5429 $w=1.8e-08 $l=4.95e-08 $layer=M1 $thickness=3.6e-08 $X=3.0735
+ $Y=0.656 $X2=3.024 $Y2=0.656
r9 11 26 6.17953 $w=1.8e-08 $l=2.65e-08 $layer=M1 $thickness=3.6e-08 $X=3.1
+ $Y=0.656 $X2=3.0735 $Y2=0.656
r10 10 25 9.89378 $w=1.8e-08 $l=4.95e-08 $layer=M1 $thickness=3.6e-08 $X=3.122
+ $Y=0.656 $X2=3.122 $Y2=0.6065
r11 10 11 3.48106 $w=1.8e-08 $l=2.2e-08 $layer=M1 $thickness=3.6e-08 $X=3.122
+ $Y=0.656 $X2=3.1 $Y2=0.656
r12 24 25 10.785 $w=1.8e-08 $l=4.63e-08 $layer=M1 $thickness=3.6e-08 $X=3.122
+ $Y=0.5602 $X2=3.122 $Y2=0.6065
r13 23 24 1.45744 $w=1.8e-08 $l=6.2e-09 $layer=M1 $thickness=3.6e-08 $X=3.123
+ $Y=0.554 $X2=3.122 $Y2=0.5602
r14 23 22 0.757867 $w=1.8e-08 $l=3.3e-09 $layer=M1 $thickness=3.6e-08 $X=3.123
+ $Y=0.554 $X2=3.122 $Y2=0.5507
r15 21 22 5.88804 $w=1.8e-08 $l=2.52e-08 $layer=M1 $thickness=3.6e-08 $X=3.122
+ $Y=0.5255 $X2=3.122 $Y2=0.5507
r16 20 21 7.34548 $w=1.8e-08 $l=3.15e-08 $layer=M1 $thickness=3.6e-08 $X=3.122
+ $Y=0.494 $X2=3.122 $Y2=0.5255
r17 13 20 4.19742 $w=1.8e-08 $l=1.8e-08 $layer=M1 $thickness=3.6e-08 $X=3.122
+ $Y=0.476 $X2=3.122 $Y2=0.494
r18 9 19 3.48106 $w=1.8e-08 $l=2.2e-08 $layer=M1 $thickness=3.6e-08 $X=3.122
+ $Y=0.458 $X2=3.1 $Y2=0.458
r19 9 13 2.5483 $w=1.8e-08 $l=1.8e-08 $layer=M1 $thickness=3.6e-08 $X=3.122
+ $Y=0.458 $X2=3.122 $Y2=0.476
r20 18 19 9.32759 $w=1.8e-08 $l=4e-08 $layer=M1 $thickness=3.6e-08 $X=3.06
+ $Y=0.458 $X2=3.1 $Y2=0.458
r21 12 18 8.39483 $w=1.8e-08 $l=3.6e-08 $layer=M1 $thickness=3.6e-08 $X=3.024
+ $Y=0.458 $X2=3.06 $Y2=0.458
r22 2 12 19.3796 $w=1.8e-08 $l=1.8e-08 $layer=<ENCRYPTED_LAYER_7> $X=3.024
+ $Y=0.476 $X2=3.024 $Y2=0.458
r23 17 15 0.0462963 $w=5.4e-08 $l=2.5e-09 $layer=<ENCRYPTED_LAYER_48>
+ $thickness=1e-09 $X=3.0413 $Y=0.476 $X2=3.0385 $Y2=0.476
r24 2 15 0.268519 $w=5.4e-08 $l=1.45e-08 $layer=<ENCRYPTED_LAYER_48>
+ $thickness=1e-09 $X=3.024 $Y=0.476 $X2=3.0385 $Y2=0.476
r25 7 2 0.268519 $w=5.4e-08 $l=1.45e-08 $layer=<ENCRYPTED_LAYER_48>
+ $thickness=1e-09 $X=3.0095 $Y=0.476 $X2=3.024 $Y2=0.476
r26 16 7 0.0462963 $w=5.4e-08 $l=2.5e-09 $layer=<ENCRYPTED_LAYER_48>
+ $thickness=1e-09 $X=3.0066 $Y=0.476 $X2=3.0095 $Y2=0.476
.ends

.subckt PM_ADDER%A VSS 46 37 41 54 78 81 85 90 93 97 27 4 22 15 16 13 24 28 23
+ 33 32 19 20 31 29 2 1 30 14 17 18 21 25 26 5 6 3
c1 1 VSS 0.000985961f $X=0.297 $Y=0.135
c2 2 VSS 0.00100438f $X=0.297 $Y=0.557
c3 3 VSS 0.00203435f $X=0.351 $Y=0.135
c4 4 VSS 0.00202895f $X=0.3405 $Y=0.557
c5 5 VSS 0.000973228f $X=0.837 $Y=0.979
c6 6 VSS 0.00210209f $X=0.891 $Y=0.979
c7 13 VSS 0.0327097f $X=0.297 $Y=0.0245
c8 14 VSS 0.0327536f $X=0.297 $Y=0.557
c9 15 VSS 0.0460591f $X=0.351 $Y=0.135
c10 16 VSS 0.0460459f $X=0.351 $Y=0.557
c11 17 VSS 0.0319516f $X=0.837 $Y=0.979
c12 18 VSS 0.0455949f $X=0.891 $Y=0.979
c13 19 VSS 0.00181493f $X=0.298 $Y=0.135
c14 20 VSS 0.000928119f $X=0.297 $Y=0.557
c15 21 VSS 0.00168375f $X=0.838 $Y=0.979
c16 22 VSS 0.00115253f $X=0.081 $Y=0.135
c17 23 VSS 0.00341287f $X=0.081 $Y=0.746
c18 24 VSS 0.00050071f $X=0.486 $Y=0.557
c19 25 VSS 0.000601659f $X=0.486 $Y=0.746
c20 26 VSS 0.00225169f $X=0.486 $Y=0.979
c21 27 VSS 0.031115f $X=0.081 $Y=0.301
c22 28 VSS 0.00950133f $X=0.19 $Y=0.135
c23 29 VSS 0.0249617f $X=0.108 $Y=0.746
c24 30 VSS 0.00244984f $X=0.349 $Y=0.557
c25 31 VSS 0.00379474f $X=0.486 $Y=0.6515
c26 32 VSS 0.00834788f $X=0.486 $Y=0.8625
c27 33 VSS 0.0132709f $X=0.6625 $Y=0.979
r1 97 98 14.6259 $w=2e-08 $l=4.3e-08 $layer=<ENCRYPTED_LAYER_23>
+ $thickness=5.6e-08 $X=0.891 $Y=0.898 $X2=0.891 $Y2=0.941
r2 95 98 7.48304 $w=2e-08 $l=2.2e-08 $layer=<ENCRYPTED_LAYER_23>
+ $thickness=5.6e-08 $X=0.891 $Y=0.963 $X2=0.891 $Y2=0.941
r3 18 95 5.61228 $w=2e-08 $l=1.6e-08 $layer=<ENCRYPTED_LAYER_23>
+ $thickness=5.6e-08 $X=0.891 $Y=0.979 $X2=0.891 $Y2=0.963
r4 93 92 16.6668 $w=2e-08 $l=4.9e-08 $layer=<ENCRYPTED_LAYER_23>
+ $thickness=5.6e-08 $X=0.837 $Y=1.06 $X2=0.837 $Y2=1.011
r5 90 91 16.6668 $w=2e-08 $l=4.9e-08 $layer=<ENCRYPTED_LAYER_23>
+ $thickness=5.6e-08 $X=0.837 $Y=0.898 $X2=0.837 $Y2=0.947
r6 17 91 11.0545 $w=2e-08 $l=3.2e-08 $layer=<ENCRYPTED_LAYER_23>
+ $thickness=5.6e-08 $X=0.837 $Y=0.979 $X2=0.837 $Y2=0.947
r7 17 92 11.0545 $w=2e-08 $l=3.2e-08 $layer=<ENCRYPTED_LAYER_23>
+ $thickness=5.6e-08 $X=0.837 $Y=0.979 $X2=0.837 $Y2=1.011
r8 85 86 14.6259 $w=2e-08 $l=4.3e-08 $layer=<ENCRYPTED_LAYER_23>
+ $thickness=5.6e-08 $X=0.351 $Y=0.476 $X2=0.351 $Y2=0.519
r9 83 86 7.48304 $w=2e-08 $l=2.2e-08 $layer=<ENCRYPTED_LAYER_23>
+ $thickness=5.6e-08 $X=0.351 $Y=0.541 $X2=0.351 $Y2=0.519
r10 16 71 6.74717 $w=2e-08 $layer=<ENCRYPTED_LAYER_23> $thickness=5.2e-08
+ $X=0.351 $Y=0.557 $X2=0.351 $Y2=0.557
r11 16 83 5.61228 $w=2e-08 $l=1.6e-08 $layer=<ENCRYPTED_LAYER_23>
+ $thickness=5.6e-08 $X=0.351 $Y=0.557 $X2=0.351 $Y2=0.541
r12 81 80 16.6668 $w=2e-08 $l=4.9e-08 $layer=<ENCRYPTED_LAYER_23>
+ $thickness=5.6e-08 $X=0.297 $Y=0.638 $X2=0.297 $Y2=0.589
r13 78 79 16.6668 $w=2e-08 $l=4.9e-08 $layer=<ENCRYPTED_LAYER_23>
+ $thickness=5.6e-08 $X=0.297 $Y=0.476 $X2=0.297 $Y2=0.525
r14 14 79 11.0545 $w=2e-08 $l=3.2e-08 $layer=<ENCRYPTED_LAYER_23>
+ $thickness=5.6e-08 $X=0.297 $Y=0.557 $X2=0.297 $Y2=0.525
r15 14 80 11.0545 $w=2e-08 $l=3.2e-08 $layer=<ENCRYPTED_LAYER_23>
+ $thickness=5.6e-08 $X=0.297 $Y=0.557 $X2=0.297 $Y2=0.589
r16 6 68 19.3796 $w=1.8e-08 $l=1.8e-08 $layer=<ENCRYPTED_LAYER_4> $X=0.891
+ $Y=0.979 $X2=0.891 $Y2=0.979
r17 6 18 6.74717 $w=2e-08 $layer=<ENCRYPTED_LAYER_23> $thickness=5.2e-08
+ $X=0.891 $Y=0.979 $X2=0.891 $Y2=0.979
r18 5 21 19.3796 $w=1.8e-08 $l=1.8e-08 $layer=<ENCRYPTED_LAYER_4> $X=0.837
+ $Y=0.979 $X2=0.838 $Y2=0.979
r19 5 17 6.74717 $w=2e-08 $layer=<ENCRYPTED_LAYER_23> $thickness=5.2e-08
+ $X=0.837 $Y=0.979 $X2=0.837 $Y2=0.979
r20 4 71 3.67391 $w=2e-08 $l=1.05e-08 $layer=LIG $thickness=4.8e-08 $X=0.3405
+ $Y=0.557 $X2=0.351 $Y2=0.557
r21 2 20 19.3796 $w=1.8e-08 $l=1.8e-08 $layer=<ENCRYPTED_LAYER_4> $X=0.297
+ $Y=0.557 $X2=0.297 $Y2=0.557
r22 2 14 6.74717 $w=2e-08 $layer=<ENCRYPTED_LAYER_23> $thickness=5.2e-08
+ $X=0.297 $Y=0.557 $X2=0.297 $Y2=0.557
r23 67 68 6.06293 $w=1.8e-08 $l=2.6e-08 $layer=M1 $thickness=3.6e-08 $X=0.865
+ $Y=0.979 $X2=0.891 $Y2=0.979
r24 21 67 6.29612 $w=1.8e-08 $l=2.7e-08 $layer=M1 $thickness=3.6e-08 $X=0.838
+ $Y=0.979 $X2=0.865 $Y2=0.979
r25 21 64 19.5347 $w=1.8e-08 $l=1.8e-08 $layer=V1 $X=0.838 $Y=0.979 $X2=0.839
+ $Y2=0.979
r26 66 71 19.3796 $w=1.8e-08 $l=1.8e-08 $layer=<ENCRYPTED_LAYER_4> $X=0.35
+ $Y=0.557 $X2=0.351 $Y2=0.557
r27 65 66 6.29612 $w=1.8e-08 $l=2.7e-08 $layer=M1 $thickness=3.6e-08 $X=0.323
+ $Y=0.557 $X2=0.35 $Y2=0.557
r28 20 65 6.06293 $w=1.8e-08 $l=2.6e-08 $layer=M1 $thickness=3.6e-08 $X=0.297
+ $Y=0.557 $X2=0.323 $Y2=0.557
r29 33 64 41.158 $w=1.8e-08 $l=1.765e-07 $layer=M2 $thickness=3.6e-08 $X=0.6625
+ $Y=0.979 $X2=0.839 $Y2=0.979
r30 30 63 15.9735 $w=1.8e-08 $l=6.85e-08 $layer=M2 $thickness=3.6e-08 $X=0.349
+ $Y=0.557 $X2=0.4175 $Y2=0.557
r31 30 66 19.5347 $w=1.8e-08 $l=1.8e-08 $layer=V1 $X=0.349 $Y=0.557 $X2=0.35
+ $Y2=0.557
r32 26 32 25.5175 $w=1.8e-08 $l=1.165e-07 $layer=M2 $thickness=3.6e-08 $X=0.486
+ $Y=0.979 $X2=0.486 $Y2=0.8625
r33 26 33 39.5089 $w=1.8e-08 $l=1.765e-07 $layer=M2 $thickness=3.6e-08 $X=0.486
+ $Y=0.979 $X2=0.6625 $Y2=0.979
r34 24 31 20.3873 $w=1.8e-08 $l=9.45e-08 $layer=M2 $thickness=3.6e-08 $X=0.486
+ $Y=0.557 $X2=0.486 $Y2=0.6515
r35 24 63 14.3244 $w=1.8e-08 $l=6.85e-08 $layer=M2 $thickness=3.6e-08 $X=0.486
+ $Y=0.557 $X2=0.4175 $Y2=0.557
r36 25 62 16.8919 $w=1.8e-08 $l=7.75e-08 $layer=M2 $thickness=3.6e-08 $X=0.486
+ $Y=0.746 $X2=0.4085 $Y2=0.746
r37 25 31 20.8561 $w=1.8e-08 $l=9.45e-08 $layer=M2 $thickness=3.6e-08 $X=0.486
+ $Y=0.746 $X2=0.486 $Y2=0.6515
r38 25 32 25.9863 $w=1.8e-08 $l=1.165e-07 $layer=M2 $thickness=3.6e-08 $X=0.486
+ $Y=0.746 $X2=0.486 $Y2=0.8625
r39 61 62 38.8261 $w=1.8e-08 $l=1.665e-07 $layer=M2 $thickness=3.6e-08 $X=0.242
+ $Y=0.746 $X2=0.4085 $Y2=0.746
r40 60 61 24.9513 $w=1.8e-08 $l=1.07e-07 $layer=M2 $thickness=3.6e-08 $X=0.135
+ $Y=0.746 $X2=0.242 $Y2=0.746
r41 29 60 6.29612 $w=1.8e-08 $l=2.7e-08 $layer=M2 $thickness=3.6e-08 $X=0.108
+ $Y=0.746 $X2=0.135 $Y2=0.746
r42 23 59 20.3873 $w=1.8e-08 $l=9.45e-08 $layer=M2 $thickness=3.6e-08 $X=0.081
+ $Y=0.746 $X2=0.081 $Y2=0.6515
r43 23 29 4.64701 $w=1.8e-08 $l=2.7e-08 $layer=M2 $thickness=3.6e-08 $X=0.081
+ $Y=0.746 $X2=0.108 $Y2=0.746
r44 58 59 32.53 $w=1.8e-08 $l=1.395e-07 $layer=M2 $thickness=3.6e-08 $X=0.081
+ $Y=0.512 $X2=0.081 $Y2=0.6515
r45 27 58 49.203 $w=1.8e-08 $l=2.11e-07 $layer=M2 $thickness=3.6e-08 $X=0.081
+ $Y=0.301 $X2=0.081 $Y2=0.512
r46 22 28 23.7686 $w=1.8e-08 $l=1.09e-07 $layer=M2 $thickness=3.6e-08 $X=0.081
+ $Y=0.135 $X2=0.19 $Y2=0.135
r47 22 27 37.0604 $w=1.8e-08 $l=1.66e-07 $layer=M2 $thickness=3.6e-08 $X=0.081
+ $Y=0.135 $X2=0.081 $Y2=0.301
r48 54 55 14.6259 $w=2e-08 $l=4.3e-08 $layer=<ENCRYPTED_LAYER_23>
+ $thickness=5.6e-08 $X=0.351 $Y=0.054 $X2=0.351 $Y2=0.097
r49 52 55 7.48304 $w=2e-08 $l=2.2e-08 $layer=<ENCRYPTED_LAYER_23>
+ $thickness=5.6e-08 $X=0.351 $Y=0.119 $X2=0.351 $Y2=0.097
r50 15 52 5.61228 $w=2e-08 $l=1.6e-08 $layer=<ENCRYPTED_LAYER_23>
+ $thickness=5.6e-08 $X=0.351 $Y=0.135 $X2=0.351 $Y2=0.119
r51 28 51 25.4177 $w=1.8e-08 $l=1.09e-07 $layer=M2 $thickness=3.6e-08 $X=0.19
+ $Y=0.135 $X2=0.299 $Y2=0.135
r52 3 48 19.3796 $w=1.8e-08 $l=1.8e-08 $layer=<ENCRYPTED_LAYER_4> $X=0.351
+ $Y=0.135 $X2=0.351 $Y2=0.135
r53 3 15 6.74717 $w=2e-08 $layer=<ENCRYPTED_LAYER_23> $thickness=5.2e-08
+ $X=0.351 $Y=0.135 $X2=0.351 $Y2=0.135
r54 47 48 4.13912 $w=1.8e-08 $l=1.78e-08 $layer=M1 $thickness=3.6e-08 $X=0.3332
+ $Y=0.135 $X2=0.351 $Y2=0.135
r55 46 47 2.15701 $w=1.8e-08 $l=9.2e-09 $layer=M1 $thickness=3.6e-08 $X=0.324
+ $Y=0.135 $X2=0.3332 $Y2=0.135
r56 46 45 1.92382 $w=1.8e-08 $l=8.3e-09 $layer=M1 $thickness=3.6e-08 $X=0.324
+ $Y=0.135 $X2=0.3157 $Y2=0.135
r57 19 45 4.13912 $w=1.8e-08 $l=1.77e-08 $layer=M1 $thickness=3.6e-08 $X=0.298
+ $Y=0.135 $X2=0.3157 $Y2=0.135
r58 19 51 19.5347 $w=1.8e-08 $l=1.8e-08 $layer=V1 $X=0.298 $Y=0.135 $X2=0.299
+ $Y2=0.135
r59 1 39 6.74717 $w=2e-08 $layer=<ENCRYPTED_LAYER_23> $thickness=5.2e-08
+ $X=0.297 $Y=0.135 $X2=0.297 $Y2=0.135
r60 1 19 19.3796 $w=1.8e-08 $l=1.8e-08 $layer=<ENCRYPTED_LAYER_4> $X=0.297
+ $Y=0.135 $X2=0.298 $Y2=0.135
r61 41 40 16.6668 $w=2e-08 $l=4.9e-08 $layer=<ENCRYPTED_LAYER_23>
+ $thickness=5.6e-08 $X=0.297 $Y=0.216 $X2=0.297 $Y2=0.167
r62 39 40 11.0545 $w=2e-08 $l=3.2e-08 $layer=<ENCRYPTED_LAYER_23>
+ $thickness=5.6e-08 $X=0.297 $Y=0.135 $X2=0.297 $Y2=0.167
r63 38 39 11.0545 $w=2e-08 $l=3.2e-08 $layer=<ENCRYPTED_LAYER_23>
+ $thickness=5.6e-08 $X=0.297 $Y=0.103 $X2=0.297 $Y2=0.135
r64 37 38 16.6668 $w=2e-08 $l=4.9e-08 $layer=<ENCRYPTED_LAYER_23>
+ $thickness=5.6e-08 $X=0.297 $Y=0.054 $X2=0.297 $Y2=0.103
r65 37 13 10.0341 $w=2e-08 $l=2.95e-08 $layer=<ENCRYPTED_LAYER_23>
+ $thickness=5.6e-08 $X=0.297 $Y=0.054 $X2=0.297 $Y2=0.0245
.ends

.subckt PM_ADDER%XI2/XI3/NET1 VSS 16 17 27 29 11 1 10 2 13 12 3
c1 1 VSS 0.00990814f $X=2.808 $Y=0.476
c2 2 VSS 0.0048332f $X=2.97 $Y=0.476
c3 3 VSS 0.00497061f $X=3.078 $Y=0.476
c4 10 VSS 0.00348568f $X=2.7935 $Y=0.476
c5 11 VSS 0.00220246f $X=2.972 $Y=0.476
c6 12 VSS 0.0269007f $X=3.0635 $Y=0.476
c7 13 VSS 0.00961996f $X=2.808 $Y=0.494
r1 12 3 0.231482 $w=5.4e-08 $l=1.25e-08 $layer=<ENCRYPTED_LAYER_48>
+ $thickness=1e-09 $X=3.0635 $Y=0.476 $X2=3.078 $Y2=0.476
r2 29 12 0.0462963 $w=5.4e-08 $l=2.5e-09 $layer=<ENCRYPTED_LAYER_48>
+ $thickness=1e-09 $X=3.0606 $Y=0.476 $X2=3.0635 $Y2=0.476
r3 27 26 0.0462963 $w=5.4e-08 $l=2.5e-09 $layer=<ENCRYPTED_LAYER_48>
+ $thickness=1e-09 $X=2.9873 $Y=0.476 $X2=2.9845 $Y2=0.476
r4 11 26 0.231482 $w=5.4e-08 $l=1.25e-08 $layer=<ENCRYPTED_LAYER_48>
+ $thickness=1e-09 $X=2.972 $Y=0.476 $X2=2.9845 $Y2=0.476
r5 3 25 19.3796 $w=1.8e-08 $l=1.8e-08 $layer=<ENCRYPTED_LAYER_7> $X=3.078
+ $Y=0.476 $X2=3.078 $Y2=0.494
r6 2 20 19.3796 $w=1.8e-08 $l=1.8e-08 $layer=<ENCRYPTED_LAYER_7> $X=2.97
+ $Y=0.476 $X2=2.97 $Y2=0.494
r7 24 25 3.14806 $w=1.8e-08 $l=1.35e-08 $layer=M1 $thickness=3.6e-08 $X=3.0645
+ $Y=0.494 $X2=3.078 $Y2=0.494
r8 23 24 6.29612 $w=1.8e-08 $l=2.7e-08 $layer=M1 $thickness=3.6e-08 $X=3.0375
+ $Y=0.494 $X2=3.0645 $Y2=0.494
r9 22 23 8.39483 $w=1.8e-08 $l=3.6e-08 $layer=M1 $thickness=3.6e-08 $X=3.0015
+ $Y=0.494 $X2=3.0375 $Y2=0.494
r10 21 22 4.19742 $w=1.8e-08 $l=1.8e-08 $layer=M1 $thickness=3.6e-08 $X=2.9835
+ $Y=0.494 $X2=3.0015 $Y2=0.494
r11 20 21 3.14806 $w=1.8e-08 $l=1.35e-08 $layer=M1 $thickness=3.6e-08 $X=2.97
+ $Y=0.494 $X2=2.9835 $Y2=0.494
r12 19 20 3.14806 $w=1.8e-08 $l=1.35e-08 $layer=M1 $thickness=3.6e-08 $X=2.9565
+ $Y=0.494 $X2=2.97 $Y2=0.494
r13 18 19 16.7897 $w=1.8e-08 $l=7.2e-08 $layer=M1 $thickness=3.6e-08 $X=2.8845
+ $Y=0.494 $X2=2.9565 $Y2=0.494
r14 13 18 17.839 $w=1.8e-08 $l=7.65e-08 $layer=M1 $thickness=3.6e-08 $X=2.808
+ $Y=0.494 $X2=2.8845 $Y2=0.494
r15 1 13 19.3796 $w=1.8e-08 $l=1.8e-08 $layer=<ENCRYPTED_LAYER_7> $X=2.808
+ $Y=0.476 $X2=2.808 $Y2=0.494
r16 17 15 0.0462963 $w=5.4e-08 $l=2.5e-09 $layer=<ENCRYPTED_LAYER_48>
+ $thickness=1e-09 $X=2.8253 $Y=0.476 $X2=2.8225 $Y2=0.476
r17 1 15 0.268519 $w=5.4e-08 $l=1.45e-08 $layer=<ENCRYPTED_LAYER_48>
+ $thickness=1e-09 $X=2.808 $Y=0.476 $X2=2.8225 $Y2=0.476
r18 10 1 0.268519 $w=5.4e-08 $l=1.45e-08 $layer=<ENCRYPTED_LAYER_48>
+ $thickness=1e-09 $X=2.7935 $Y=0.476 $X2=2.808 $Y2=0.476
r19 16 10 0.0462963 $w=5.4e-08 $l=2.5e-09 $layer=<ENCRYPTED_LAYER_48>
+ $thickness=1e-09 $X=2.7906 $Y=0.476 $X2=2.7935 $Y2=0.476
r20 2 11 1e-05 $l=2e-09 $X=2.97 $Y=0.476 $X2=2.972 $Y2=0.476
.ends

.subckt PM_ADDER%XI0/NET2 VSS 32 56 61 79 80 83 84 17 7 24 16 25 19 26 8 27 22
+ 31 21 23 29 30 3 28 20 15 18 1 2 13 14
c1 1 VSS 0.00262026f $X=1.161 $Y=0.557
c2 2 VSS 0.0027875f $X=1.215 $Y=0.557
c3 3 VSS 0.00261546f $X=1.323 $Y=0.557
c4 7 VSS 0.0120248f $X=0.81 $Y=0.638
c5 8 VSS 0.00561031f $X=0.864 $Y=0.476
c6 13 VSS 0.0466229f $X=1.161 $Y=0.4465
c7 14 VSS 0.0475659f $X=1.215 $Y=0.557
c8 15 VSS 0.0459796f $X=1.323 $Y=0.557
c9 16 VSS 0.00265736f $X=0.8495 $Y=0.476
c10 17 VSS 0.00414299f $X=0.7955 $Y=0.638
c11 18 VSS 0.00359543f $X=0.962 $Y=0.4615
c12 19 VSS 0.00038555f $X=0.962 $Y=0.557
c13 20 VSS 0.00296195f $X=0.962 $Y=0.6525
c14 21 VSS 0.00544977f $X=1.094 $Y=0.465
c15 22 VSS 0.000288061f $X=1.094 $Y=0.557
c16 23 VSS 0.00505809f $X=1.094 $Y=0.649
c17 24 VSS 0.016251f $X=0.94 $Y=0.656
c18 25 VSS 0.00923043f $X=0.94 $Y=0.458
c19 26 VSS 0.00226914f $X=0.962 $Y=0.5255
c20 27 VSS 0.00267917f $X=0.962 $Y=0.603
c21 28 VSS 0.00292639f $X=1.0825 $Y=0.557
c22 29 VSS 0.00302008f $X=1.094 $Y=0.5255
c23 30 VSS 0.00246796f $X=1.094 $Y=0.603
c24 31 VSS 0.00486119f $X=1.1365 $Y=0.557
r1 84 82 0.0462963 $w=5.4e-08 $l=2.5e-09 $layer=<ENCRYPTED_LAYER_49>
+ $thickness=1e-09 $X=0.8273 $Y=0.638 $X2=0.8245 $Y2=0.638
r2 7 82 0.268519 $w=5.4e-08 $l=1.45e-08 $layer=<ENCRYPTED_LAYER_49>
+ $thickness=1e-09 $X=0.81 $Y=0.638 $X2=0.8245 $Y2=0.638
r3 17 7 0.268519 $w=5.4e-08 $l=1.45e-08 $layer=<ENCRYPTED_LAYER_49>
+ $thickness=1e-09 $X=0.7955 $Y=0.638 $X2=0.81 $Y2=0.638
r4 83 17 0.0462963 $w=5.4e-08 $l=2.5e-09 $layer=<ENCRYPTED_LAYER_49>
+ $thickness=1e-09 $X=0.7926 $Y=0.638 $X2=0.7955 $Y2=0.638
r5 80 78 0.0462963 $w=5.4e-08 $l=2.5e-09 $layer=<ENCRYPTED_LAYER_48>
+ $thickness=1e-09 $X=0.8813 $Y=0.476 $X2=0.8785 $Y2=0.476
r6 8 78 0.268519 $w=5.4e-08 $l=1.45e-08 $layer=<ENCRYPTED_LAYER_48>
+ $thickness=1e-09 $X=0.864 $Y=0.476 $X2=0.8785 $Y2=0.476
r7 16 8 0.268519 $w=5.4e-08 $l=1.45e-08 $layer=<ENCRYPTED_LAYER_48>
+ $thickness=1e-09 $X=0.8495 $Y=0.476 $X2=0.864 $Y2=0.476
r8 79 16 0.0462963 $w=5.4e-08 $l=2.5e-09 $layer=<ENCRYPTED_LAYER_48>
+ $thickness=1e-09 $X=0.8466 $Y=0.476 $X2=0.8495 $Y2=0.476
r9 7 75 19.3796 $w=1.8e-08 $l=1.8e-08 $layer=<ENCRYPTED_LAYER_7> $X=0.81
+ $Y=0.638 $X2=0.81 $Y2=0.656
r10 8 71 19.3796 $w=1.8e-08 $l=1.8e-08 $layer=<ENCRYPTED_LAYER_7> $X=0.864
+ $Y=0.476 $X2=0.864 $Y2=0.458
r11 75 76 3.14806 $w=1.8e-08 $l=1.35e-08 $layer=M1 $thickness=3.6e-08 $X=0.81
+ $Y=0.656 $X2=0.8235 $Y2=0.656
r12 74 76 9.44419 $w=1.8e-08 $l=4.05e-08 $layer=M1 $thickness=3.6e-08 $X=0.864
+ $Y=0.656 $X2=0.8235 $Y2=0.656
r13 73 74 11.5429 $w=1.8e-08 $l=4.95e-08 $layer=M1 $thickness=3.6e-08 $X=0.9135
+ $Y=0.656 $X2=0.864 $Y2=0.656
r14 24 73 6.17953 $w=1.8e-08 $l=2.65e-08 $layer=M1 $thickness=3.6e-08 $X=0.94
+ $Y=0.656 $X2=0.9135 $Y2=0.656
r15 71 72 8.39483 $w=1.8e-08 $l=3.6e-08 $layer=M1 $thickness=3.6e-08 $X=0.864
+ $Y=0.458 $X2=0.9 $Y2=0.458
r16 25 72 9.32759 $w=1.8e-08 $l=4e-08 $layer=M1 $thickness=3.6e-08 $X=0.94
+ $Y=0.458 $X2=0.9 $Y2=0.458
r17 20 68 1.37741 $w=1.8e-08 $l=9e-09 $layer=M1 $thickness=3.6e-08 $X=0.962
+ $Y=0.6525 $X2=0.962 $Y2=0.6435
r18 20 24 3.59271 $w=1.8e-08 $l=2.22767e-08 $layer=M1 $thickness=3.6e-08
+ $X=0.962 $Y=0.6525 $X2=0.94 $Y2=0.656
r19 18 67 1.37741 $w=1.8e-08 $l=9e-09 $layer=M1 $thickness=3.6e-08 $X=0.962
+ $Y=0.4615 $X2=0.962 $Y2=0.4705
r20 18 25 3.59271 $w=1.8e-08 $l=2.22767e-08 $layer=M1 $thickness=3.6e-08
+ $X=0.962 $Y=0.4615 $X2=0.94 $Y2=0.458
r21 27 68 9.44419 $w=1.8e-08 $l=4.05e-08 $layer=M1 $thickness=3.6e-08 $X=0.962
+ $Y=0.603 $X2=0.962 $Y2=0.6435
r22 66 67 2.09871 $w=1.8e-08 $l=9e-09 $layer=M1 $thickness=3.6e-08 $X=0.962
+ $Y=0.4795 $X2=0.962 $Y2=0.4705
r23 65 66 3.38125 $w=1.8e-08 $l=1.45e-08 $layer=M1 $thickness=3.6e-08 $X=0.962
+ $Y=0.494 $X2=0.962 $Y2=0.4795
r24 26 65 7.34548 $w=1.8e-08 $l=3.15e-08 $layer=M1 $thickness=3.6e-08 $X=0.962
+ $Y=0.5255 $X2=0.962 $Y2=0.494
r25 23 30 9.54642 $w=1.8e-08 $l=4.6e-08 $layer=M1 $thickness=3.6e-08 $X=1.094
+ $Y=0.649 $X2=1.094 $Y2=0.603
r26 21 54 2.20094 $w=1.8e-08 $l=1.45e-08 $layer=M1 $thickness=3.6e-08 $X=1.094
+ $Y=0.465 $X2=1.094 $Y2=0.4795
r27 19 52 1.03499 $w=1.8e-08 $l=9.5e-09 $layer=M1 $thickness=3.6e-08 $X=0.962
+ $Y=0.557 $X2=0.9715 $Y2=0.557
r28 19 26 6.16517 $w=1.8e-08 $l=3.15e-08 $layer=M1 $thickness=3.6e-08 $X=0.962
+ $Y=0.557 $X2=0.962 $Y2=0.5255
r29 19 27 9.54642 $w=1.8e-08 $l=4.6e-08 $layer=M1 $thickness=3.6e-08 $X=0.962
+ $Y=0.557 $X2=0.962 $Y2=0.603
r30 61 60 16.6668 $w=2e-08 $l=4.9e-08 $layer=<ENCRYPTED_LAYER_23>
+ $thickness=5.6e-08 $X=1.323 $Y=0.638 $X2=1.323 $Y2=0.589
r31 15 60 11.0545 $w=2e-08 $l=3.2e-08 $layer=<ENCRYPTED_LAYER_23>
+ $thickness=5.6e-08 $X=1.323 $Y=0.557 $X2=1.323 $Y2=0.589
r32 56 57 16.6668 $w=2e-08 $l=4.9e-08 $layer=<ENCRYPTED_LAYER_23>
+ $thickness=5.6e-08 $X=1.215 $Y=0.476 $X2=1.215 $Y2=0.525
r33 14 57 11.0545 $w=2e-08 $l=3.2e-08 $layer=<ENCRYPTED_LAYER_23>
+ $thickness=5.6e-08 $X=1.215 $Y=0.557 $X2=1.215 $Y2=0.525
r34 53 54 3.38125 $w=1.8e-08 $l=1.45e-08 $layer=M1 $thickness=3.6e-08 $X=1.094
+ $Y=0.494 $X2=1.094 $Y2=0.4795
r35 29 53 7.34548 $w=1.8e-08 $l=3.15e-08 $layer=M1 $thickness=3.6e-08 $X=1.094
+ $Y=0.5255 $X2=1.094 $Y2=0.494
r36 51 52 12.7088 $w=1.8e-08 $l=5.45e-08 $layer=M1 $thickness=3.6e-08 $X=1.026
+ $Y=0.557 $X2=0.9715 $Y2=0.557
r37 28 51 13.1752 $w=1.8e-08 $l=5.65e-08 $layer=M1 $thickness=3.6e-08 $X=1.0825
+ $Y=0.557 $X2=1.026 $Y2=0.557
r38 3 46 19.3796 $w=1.8e-08 $l=1.8e-08 $layer=<ENCRYPTED_LAYER_4> $X=1.323
+ $Y=0.557 $X2=1.323 $Y2=0.557
r39 3 15 6.74717 $w=2e-08 $layer=<ENCRYPTED_LAYER_23> $thickness=5.2e-08
+ $X=1.323 $Y=0.557 $X2=1.323 $Y2=0.557
r40 2 44 19.3796 $w=1.8e-08 $l=1.8e-08 $layer=<ENCRYPTED_LAYER_4> $X=1.215
+ $Y=0.557 $X2=1.215 $Y2=0.557
r41 2 14 6.74717 $w=2e-08 $layer=<ENCRYPTED_LAYER_23> $thickness=5.2e-08
+ $X=1.215 $Y=0.557 $X2=1.215 $Y2=0.557
r42 22 42 3.01711 $w=1.8e-08 $l=1.8e-08 $layer=M1 $thickness=3.6e-08 $X=1.094
+ $Y=0.557 $X2=1.112 $Y2=0.557
r43 22 28 1.50137 $w=1.8e-08 $l=1.15e-08 $layer=M1 $thickness=3.6e-08 $X=1.094
+ $Y=0.557 $X2=1.0825 $Y2=0.557
r44 22 29 6.16517 $w=1.8e-08 $l=3.15e-08 $layer=M1 $thickness=3.6e-08 $X=1.094
+ $Y=0.557 $X2=1.094 $Y2=0.5255
r45 22 30 9.54642 $w=1.8e-08 $l=4.6e-08 $layer=M1 $thickness=3.6e-08 $X=1.094
+ $Y=0.557 $X2=1.094 $Y2=0.603
r46 45 46 12.5922 $w=1.8e-08 $l=5.4e-08 $layer=M1 $thickness=3.6e-08 $X=1.269
+ $Y=0.557 $X2=1.323 $Y2=0.557
r47 44 45 12.5922 $w=1.8e-08 $l=5.4e-08 $layer=M1 $thickness=3.6e-08 $X=1.215
+ $Y=0.557 $X2=1.269 $Y2=0.557
r48 43 44 5.24677 $w=1.8e-08 $l=2.25e-08 $layer=M1 $thickness=3.6e-08 $X=1.1925
+ $Y=0.557 $X2=1.215 $Y2=0.557
r49 41 43 4.19742 $w=1.8e-08 $l=1.8e-08 $layer=M1 $thickness=3.6e-08 $X=1.1745
+ $Y=0.557 $X2=1.1925 $Y2=0.557
r50 40 41 3.14806 $w=1.8e-08 $l=1.35e-08 $layer=M1 $thickness=3.6e-08 $X=1.161
+ $Y=0.557 $X2=1.1745 $Y2=0.557
r51 31 40 5.71315 $w=1.8e-08 $l=2.45e-08 $layer=M1 $thickness=3.6e-08 $X=1.1365
+ $Y=0.557 $X2=1.161 $Y2=0.557
r52 31 42 5.71315 $w=1.8e-08 $l=2.45e-08 $layer=M1 $thickness=3.6e-08 $X=1.1365
+ $Y=0.557 $X2=1.112 $Y2=0.557
r53 1 35 6.74717 $w=2e-08 $layer=<ENCRYPTED_LAYER_23> $thickness=5.2e-08
+ $X=1.161 $Y=0.557 $X2=1.161 $Y2=0.557
r54 1 40 19.3796 $w=1.8e-08 $l=1.8e-08 $layer=<ENCRYPTED_LAYER_4> $X=1.161
+ $Y=0.557 $X2=1.161 $Y2=0.557
r55 34 35 5.61228 $w=2e-08 $l=1.6e-08 $layer=<ENCRYPTED_LAYER_23>
+ $thickness=5.6e-08 $X=1.161 $Y=0.541 $X2=1.161 $Y2=0.557
r56 33 34 7.48304 $w=2e-08 $l=2.2e-08 $layer=<ENCRYPTED_LAYER_23>
+ $thickness=5.6e-08 $X=1.161 $Y=0.519 $X2=1.161 $Y2=0.541
r57 32 33 14.6259 $w=2e-08 $l=4.3e-08 $layer=<ENCRYPTED_LAYER_23>
+ $thickness=5.6e-08 $X=1.161 $Y=0.476 $X2=1.161 $Y2=0.519
r58 32 13 10.0341 $w=2e-08 $l=2.95e-08 $layer=<ENCRYPTED_LAYER_23>
+ $thickness=5.6e-08 $X=1.161 $Y=0.476 $X2=1.161 $Y2=0.4465
.ends

.subckt PM_ADDER%NET7 VSS 34 50 55 79 80 83 84 17 24 28 7 16 20 25 19 26 8 27
+ 15 30 31 23 14 3 18 1 2 13
c1 1 VSS 0.00222252f $X=2.241 $Y=0.135
c2 2 VSS 0.00239968f $X=2.295 $Y=0.135
c3 3 VSS 0.00220552f $X=2.403 $Y=0.135
c4 7 VSS 0.0113756f $X=1.89 $Y=0.216
c5 8 VSS 0.00520056f $X=1.944 $Y=0.054
c6 13 VSS 0.0474952f $X=2.241 $Y=0.135
c7 14 VSS 0.048387f $X=2.295 $Y=0.135
c8 15 VSS 0.0465815f $X=2.403 $Y=0.0735
c9 16 VSS 0.00361819f $X=1.9295 $Y=0.054
c10 17 VSS 0.00518389f $X=1.8755 $Y=0.216
c11 18 VSS 0.00311554f $X=2.042 $Y=0.0395
c12 19 VSS 0.000258094f $X=2.042 $Y=0.135
c13 20 VSS 0.00303283f $X=2.042 $Y=0.2305
c14 21 VSS 0.00576179f $X=2.174 $Y=0.043
c15 22 VSS 0.000350596f $X=2.174 $Y=0.135
c16 23 VSS 0.00508541f $X=2.174 $Y=0.227
c17 24 VSS 0.0161283f $X=2.02 $Y=0.234
c18 25 VSS 0.00935824f $X=2.02 $Y=0.036
c19 26 VSS 0.00261148f $X=2.042 $Y=0.1035
c20 27 VSS 0.00282337f $X=2.042 $Y=0.181
c21 28 VSS 0.00377677f $X=2.1625 $Y=0.135
c22 29 VSS 0.00354085f $X=2.174 $Y=0.1035
c23 30 VSS 0.00292979f $X=2.174 $Y=0.181
c24 31 VSS 0.0063415f $X=2.2725 $Y=0.135
r1 84 82 0.0462963 $w=5.4e-08 $l=2.5e-09 $layer=<ENCRYPTED_LAYER_49>
+ $thickness=1e-09 $X=1.9073 $Y=0.216 $X2=1.9045 $Y2=0.216
r2 7 82 0.268519 $w=5.4e-08 $l=1.45e-08 $layer=<ENCRYPTED_LAYER_49>
+ $thickness=1e-09 $X=1.89 $Y=0.216 $X2=1.9045 $Y2=0.216
r3 17 7 0.268519 $w=5.4e-08 $l=1.45e-08 $layer=<ENCRYPTED_LAYER_49>
+ $thickness=1e-09 $X=1.8755 $Y=0.216 $X2=1.89 $Y2=0.216
r4 83 17 0.0462963 $w=5.4e-08 $l=2.5e-09 $layer=<ENCRYPTED_LAYER_49>
+ $thickness=1e-09 $X=1.8726 $Y=0.216 $X2=1.8755 $Y2=0.216
r5 80 78 0.0462963 $w=5.4e-08 $l=2.5e-09 $layer=<ENCRYPTED_LAYER_48>
+ $thickness=1e-09 $X=1.9613 $Y=0.054 $X2=1.9585 $Y2=0.054
r6 8 78 0.268519 $w=5.4e-08 $l=1.45e-08 $layer=<ENCRYPTED_LAYER_48>
+ $thickness=1e-09 $X=1.944 $Y=0.054 $X2=1.9585 $Y2=0.054