* Design:	Multiplier
* Created:	"Thu Dec 8 2022"
* Vendor:	"Mentor Graphics Corporation"
* Program:	"Calibre xACT 3D"
* Version:	"v2017.4_19.14"
* Corner Name: typical_27
* Nominal Temperature: 25C
* Circuit Temperature: 27C
* 
* Integrated TICER reduction is not enabled.
* SHORT DELAY THRESHOLD: 2e-15
* Fill Mode: NG
* PEX REDUCE CC ABSOLUTE : 1
* PEX REDUCE CC RELATIVE : 0.01
* Delta transform mode : 344834

* .include "Multiplier.pex.netlist.pex"

* Start of included file Multiplier.pex.netlist.pex

.subckt PM_Multiplier%XI3/XI3/NET1 VSS 16 17 27 29 11 1 10 2 13 12 3
c1 1 VSS 0.00985056f $X=1.216 $Y=0.089
c2 2 VSS 0.00482588f $X=1.378 $Y=0.089
c3 3 VSS 0.00533025f $X=1.486 $Y=0.089
c4 10 VSS 0.0034804f $X=1.2015 $Y=0.089
c5 11 VSS 0.00219912f $X=1.38 $Y=0.089
c6 12 VSS 0.0268619f $X=1.4715 $Y=0.089
c7 13 VSS 0.00968038f $X=1.216 $Y=0.107
r1 12 3 0.231482 $w=5.4e-08 $l=1.25e-08 $layer=<ENCRYPTED_LAYER_48>
+ $thickness=1e-09 $X=1.4715 $Y=0.089 $X2=1.486 $Y2=0.089
r2 29 12 0.0462963 $w=5.4e-08 $l=2.5e-09 $layer=<ENCRYPTED_LAYER_48>
+ $thickness=1e-09 $X=1.4686 $Y=0.089 $X2=1.4715 $Y2=0.089
r3 27 26 0.0462963 $w=5.4e-08 $l=2.5e-09 $layer=<ENCRYPTED_LAYER_48>
+ $thickness=1e-09 $X=1.3953 $Y=0.089 $X2=1.3925 $Y2=0.089
r4 11 26 0.231482 $w=5.4e-08 $l=1.25e-08 $layer=<ENCRYPTED_LAYER_48>
+ $thickness=1e-09 $X=1.38 $Y=0.089 $X2=1.3925 $Y2=0.089
r5 3 25 19.3796 $w=1.8e-08 $l=1.8e-08 $layer=<ENCRYPTED_LAYER_7> $X=1.486
+ $Y=0.089 $X2=1.486 $Y2=0.107
r6 2 20 19.3796 $w=1.8e-08 $l=1.8e-08 $layer=<ENCRYPTED_LAYER_7> $X=1.378
+ $Y=0.089 $X2=1.378 $Y2=0.107
r7 24 25 3.14806 $w=1.8e-08 $l=1.35e-08 $layer=M1 $thickness=3.6e-08 $X=1.4725
+ $Y=0.107 $X2=1.486 $Y2=0.107
r8 23 24 6.29612 $w=1.8e-08 $l=2.7e-08 $layer=M1 $thickness=3.6e-08 $X=1.4455
+ $Y=0.107 $X2=1.4725 $Y2=0.107
r9 22 23 8.39483 $w=1.8e-08 $l=3.6e-08 $layer=M1 $thickness=3.6e-08 $X=1.4095
+ $Y=0.107 $X2=1.4455 $Y2=0.107
r10 21 22 4.19742 $w=1.8e-08 $l=1.8e-08 $layer=M1 $thickness=3.6e-08 $X=1.3915
+ $Y=0.107 $X2=1.4095 $Y2=0.107
r11 20 21 3.14806 $w=1.8e-08 $l=1.35e-08 $layer=M1 $thickness=3.6e-08 $X=1.378
+ $Y=0.107 $X2=1.3915 $Y2=0.107
r12 19 20 3.14806 $w=1.8e-08 $l=1.35e-08 $layer=M1 $thickness=3.6e-08 $X=1.3645
+ $Y=0.107 $X2=1.378 $Y2=0.107
r13 18 19 16.7897 $w=1.8e-08 $l=7.2e-08 $layer=M1 $thickness=3.6e-08 $X=1.2925
+ $Y=0.107 $X2=1.3645 $Y2=0.107
r14 13 18 17.839 $w=1.8e-08 $l=7.65e-08 $layer=M1 $thickness=3.6e-08 $X=1.216
+ $Y=0.107 $X2=1.2925 $Y2=0.107
r15 1 13 19.3796 $w=1.8e-08 $l=1.8e-08 $layer=<ENCRYPTED_LAYER_7> $X=1.216
+ $Y=0.089 $X2=1.216 $Y2=0.107
r16 17 15 0.0462963 $w=5.4e-08 $l=2.5e-09 $layer=<ENCRYPTED_LAYER_48>
+ $thickness=1e-09 $X=1.2333 $Y=0.089 $X2=1.2305 $Y2=0.089
r17 1 15 0.268519 $w=5.4e-08 $l=1.45e-08 $layer=<ENCRYPTED_LAYER_48>
+ $thickness=1e-09 $X=1.216 $Y=0.089 $X2=1.2305 $Y2=0.089
r18 10 1 0.268519 $w=5.4e-08 $l=1.45e-08 $layer=<ENCRYPTED_LAYER_48>
+ $thickness=1e-09 $X=1.2015 $Y=0.089 $X2=1.216 $Y2=0.089
r19 16 10 0.0462963 $w=5.4e-08 $l=2.5e-09 $layer=<ENCRYPTED_LAYER_48>
+ $thickness=1e-09 $X=1.1986 $Y=0.089 $X2=1.2015 $Y2=0.089
r20 2 11 1e-05 $l=2e-09 $X=1.378 $Y=0.089 $X2=1.38 $Y2=0.089
.ends

.subckt PM_Multiplier%Y<1> VSS 18 13 25 7 11 8
c1 1 VSS 0.010394f $X=2.296 $Y=0.089
c2 2 VSS 0.0104046f $X=2.296 $Y=0.251
c3 7 VSS 0.0288538f $X=2.2815 $Y=0.089
c4 8 VSS 0.0288972f $X=2.2815 $Y=0.251
c5 9 VSS 0.00647364f $X=2.296 $Y=0.071
c6 10 VSS 0.00667815f $X=2.324 $Y=0.269
c7 11 VSS 0.00715075f $X=2.324 $Y=0.0835
r1 8 2 0.231482 $w=5.4e-08 $l=1.25e-08 $layer=<ENCRYPTED_LAYER_49>
+ $thickness=1e-09 $X=2.2815 $Y=0.251 $X2=2.296 $Y2=0.251
r2 25 8 0.0462963 $w=5.4e-08 $l=2.5e-09 $layer=<ENCRYPTED_LAYER_49>
+ $thickness=1e-09 $X=2.2786 $Y=0.251 $X2=2.2815 $Y2=0.251
r3 2 22 19.3796 $w=1.8e-08 $l=1.8e-08 $layer=<ENCRYPTED_LAYER_7> $X=2.296
+ $Y=0.251 $X2=2.296 $Y2=0.269
r4 22 23 3.26466 $w=1.8e-08 $l=1.4e-08 $layer=M1 $thickness=3.6e-08 $X=2.296
+ $Y=0.269 $X2=2.31 $Y2=0.269
r5 10 21 1.73456 $w=1.8e-08 $l=1.25e-08 $layer=M1 $thickness=3.6e-08 $X=2.324
+ $Y=0.269 $X2=2.324 $Y2=0.2565
r6 10 23 2.08435 $w=1.8e-08 $l=1.4e-08 $layer=M1 $thickness=3.6e-08 $X=2.324
+ $Y=0.269 $X2=2.31 $Y2=0.269
r7 20 21 9.44419 $w=1.8e-08 $l=4.05e-08 $layer=M1 $thickness=3.6e-08 $X=2.324
+ $Y=0.216 $X2=2.324 $Y2=0.2565
r8 19 20 9.85227 $w=1.8e-08 $l=4.23e-08 $layer=M1 $thickness=3.6e-08 $X=2.324
+ $Y=0.1737 $X2=2.324 $Y2=0.216
r9 18 19 1.34084 $w=1.8e-08 $l=5.7e-09 $layer=M1 $thickness=3.6e-08 $X=2.323
+ $Y=0.168 $X2=2.324 $Y2=0.1737
r10 18 17 0.874462 $w=1.8e-08 $l=3.8e-09 $layer=M1 $thickness=3.6e-08 $X=2.323
+ $Y=0.168 $X2=2.324 $Y2=0.1642
r11 16 17 9.38589 $w=1.8e-08 $l=4.02e-08 $layer=M1 $thickness=3.6e-08 $X=2.324
+ $Y=0.124 $X2=2.324 $Y2=0.1642
r12 11 15 1.73456 $w=1.8e-08 $l=1.25e-08 $layer=M1 $thickness=3.6e-08 $X=2.324
+ $Y=0.0835 $X2=2.324 $Y2=0.071
r13 11 16 9.44419 $w=1.8e-08 $l=4.05e-08 $layer=M1 $thickness=3.6e-08 $X=2.324
+ $Y=0.0835 $X2=2.324 $Y2=0.124
r14 14 15 2.08435 $w=1.8e-08 $l=1.4e-08 $layer=M1 $thickness=3.6e-08 $X=2.31
+ $Y=0.071 $X2=2.324 $Y2=0.071
r15 9 14 3.26466 $w=1.8e-08 $l=1.4e-08 $layer=M1 $thickness=3.6e-08 $X=2.296
+ $Y=0.071 $X2=2.31 $Y2=0.071
r16 1 9 19.3796 $w=1.8e-08 $l=1.8e-08 $layer=<ENCRYPTED_LAYER_7> $X=2.296
+ $Y=0.089 $X2=2.296 $Y2=0.071
r17 7 1 0.231482 $w=5.4e-08 $l=1.25e-08 $layer=<ENCRYPTED_LAYER_48>
+ $thickness=1e-09 $X=2.2815 $Y=0.089 $X2=2.296 $Y2=0.089
r18 13 7 0.0462963 $w=5.4e-08 $l=2.5e-09 $layer=<ENCRYPTED_LAYER_48>
+ $thickness=1e-09 $X=2.2786 $Y=0.089 $X2=2.2815 $Y2=0.089
.ends

.subckt PM_Multiplier%X<1> VSS 31 22 26 39 51 54 58 9 15 19 13 18 1 17 14 11 2
+ 16 3 10 12 4
c1 1 VSS 0.00101675f $X=0.325 $Y=0.17
c2 2 VSS 0.00208564f $X=0.3685 $Y=0.17
c3 3 VSS 0.00104549f $X=0.865 $Y=0.592
c4 4 VSS 0.00223545f $X=0.919 $Y=0.592
c5 9 VSS 0.0319333f $X=0.325 $Y=0.0595
c6 10 VSS 0.0452802f $X=0.379 $Y=0.17
c7 11 VSS 0.0319516f $X=0.865 $Y=0.592
c8 12 VSS 0.0455448f $X=0.919 $Y=0.592
c9 13 VSS 0.00184104f $X=0.325 $Y=0.17
c10 14 VSS 0.00194813f $X=0.866 $Y=0.592
c11 15 VSS 0.000564883f $X=0.514 $Y=0.17
c12 16 VSS 0.00319537f $X=0.514 $Y=0.592
c13 17 VSS 0.00488545f $X=0.377 $Y=0.17
c14 18 VSS 0.0203503f $X=0.514 $Y=0.381
c15 19 VSS 0.0179757f $X=0.6905 $Y=0.592
r1 58 59 14.6259 $w=2e-08 $l=4.3e-08 $layer=<ENCRYPTED_LAYER_23>
+ $thickness=5.6e-08 $X=0.919 $Y=0.511 $X2=0.919 $Y2=0.554
r2 56 59 7.48304 $w=2e-08 $l=2.2e-08 $layer=<ENCRYPTED_LAYER_23>
+ $thickness=5.6e-08 $X=0.919 $Y=0.576 $X2=0.919 $Y2=0.554
r3 12 56 5.61228 $w=2e-08 $l=1.6e-08 $layer=<ENCRYPTED_LAYER_23>
+ $thickness=5.6e-08 $X=0.919 $Y=0.592 $X2=0.919 $Y2=0.576
r4 54 53 16.6668 $w=2e-08 $l=4.9e-08 $layer=<ENCRYPTED_LAYER_23>
+ $thickness=5.6e-08 $X=0.865 $Y=0.673 $X2=0.865 $Y2=0.624
r5 51 52 16.6668 $w=2e-08 $l=4.9e-08 $layer=<ENCRYPTED_LAYER_23>
+ $thickness=5.6e-08 $X=0.865 $Y=0.511 $X2=0.865 $Y2=0.56
r6 11 52 11.0545 $w=2e-08 $l=3.2e-08 $layer=<ENCRYPTED_LAYER_23>
+ $thickness=5.6e-08 $X=0.865 $Y=0.592 $X2=0.865 $Y2=0.56
r7 11 53 11.0545 $w=2e-08 $l=3.2e-08 $layer=<ENCRYPTED_LAYER_23>
+ $thickness=5.6e-08 $X=0.865 $Y=0.592 $X2=0.865 $Y2=0.624
r8 4 45 19.3796 $w=1.8e-08 $l=1.8e-08 $layer=<ENCRYPTED_LAYER_4> $X=0.919
+ $Y=0.592 $X2=0.919 $Y2=0.592
r9 4 12 6.74717 $w=2e-08 $layer=<ENCRYPTED_LAYER_23> $thickness=5.2e-08
+ $X=0.919 $Y=0.592 $X2=0.919 $Y2=0.592
r10 3 14 19.3796 $w=1.8e-08 $l=1.8e-08 $layer=<ENCRYPTED_LAYER_4> $X=0.865
+ $Y=0.592 $X2=0.866 $Y2=0.592
r11 3 11 6.74717 $w=2e-08 $layer=<ENCRYPTED_LAYER_23> $thickness=5.2e-08
+ $X=0.865 $Y=0.592 $X2=0.865 $Y2=0.592
r12 44 45 6.06293 $w=1.8e-08 $l=2.6e-08 $layer=M1 $thickness=3.6e-08 $X=0.893
+ $Y=0.592 $X2=0.919 $Y2=0.592
r13 14 44 6.29612 $w=1.8e-08 $l=2.7e-08 $layer=M1 $thickness=3.6e-08 $X=0.866
+ $Y=0.592 $X2=0.893 $Y2=0.592
r14 14 43 19.5347 $w=1.8e-08 $l=1.8e-08 $layer=V1 $X=0.866 $Y=0.592 $X2=0.867
+ $Y2=0.592
r15 19 43 41.158 $w=1.8e-08 $l=1.765e-07 $layer=M2 $thickness=3.6e-08 $X=0.6905
+ $Y=0.592 $X2=0.867 $Y2=0.592
r16 16 18 47.5539 $w=1.8e-08 $l=2.11e-07 $layer=M2 $thickness=3.6e-08 $X=0.514
+ $Y=0.592 $X2=0.514 $Y2=0.381
r17 16 19 39.5089 $w=1.8e-08 $l=1.765e-07 $layer=M2 $thickness=3.6e-08 $X=0.514
+ $Y=0.592 $X2=0.6905 $Y2=0.592
r18 15 36 14.3244 $w=1.8e-08 $l=6.85e-08 $layer=M2 $thickness=3.6e-08 $X=0.514
+ $Y=0.17 $X2=0.4455 $Y2=0.17
r19 15 18 47.5539 $w=1.8e-08 $l=2.11e-07 $layer=M2 $thickness=3.6e-08 $X=0.514
+ $Y=0.17 $X2=0.514 $Y2=0.381
r20 39 40 14.6259 $w=2e-08 $l=4.3e-08 $layer=<ENCRYPTED_LAYER_23>
+ $thickness=5.6e-08 $X=0.379 $Y=0.089 $X2=0.379 $Y2=0.132
r21 37 40 7.48304 $w=2e-08 $l=2.2e-08 $layer=<ENCRYPTED_LAYER_23>
+ $thickness=5.6e-08 $X=0.379 $Y=0.154 $X2=0.379 $Y2=0.132
r22 10 34 6.74717 $w=2e-08 $layer=<ENCRYPTED_LAYER_23> $thickness=5.2e-08
+ $X=0.379 $Y=0.17 $X2=0.379 $Y2=0.17
r23 10 37 5.61228 $w=2e-08 $l=1.6e-08 $layer=<ENCRYPTED_LAYER_23>
+ $thickness=5.6e-08 $X=0.379 $Y=0.17 $X2=0.379 $Y2=0.154
r24 17 36 15.9735 $w=1.8e-08 $l=6.85e-08 $layer=M2 $thickness=3.6e-08 $X=0.377
+ $Y=0.17 $X2=0.4455 $Y2=0.17
r25 17 33 19.5347 $w=1.8e-08 $l=1.8e-08 $layer=V1 $X=0.377 $Y=0.17 $X2=0.378
+ $Y2=0.17
r26 2 34 3.67391 $w=2e-08 $l=1.05e-08 $layer=LIG $thickness=4.8e-08 $X=0.3685
+ $Y=0.17 $X2=0.379 $Y2=0.17
r27 33 34 19.3796 $w=1.8e-08 $l=1.8e-08 $layer=<ENCRYPTED_LAYER_4> $X=0.378
+ $Y=0.17 $X2=0.379 $Y2=0.17
r28 32 33 4.13912 $w=1.8e-08 $l=1.78e-08 $layer=M1 $thickness=3.6e-08 $X=0.3602
+ $Y=0.17 $X2=0.378 $Y2=0.17
r29 31 32 1.92382 $w=1.8e-08 $l=8.2e-09 $layer=M1 $thickness=3.6e-08 $X=0.352
+ $Y=0.166 $X2=0.3602 $Y2=0.17
r30 31 30 2.15701 $w=1.8e-08 $l=9.3e-09 $layer=M1 $thickness=3.6e-08 $X=0.352
+ $Y=0.166 $X2=0.3427 $Y2=0.17
r31 13 30 4.13912 $w=1.8e-08 $l=1.77e-08 $layer=M1 $thickness=3.6e-08 $X=0.325
+ $Y=0.17 $X2=0.3427 $Y2=0.17
r32 1 24 6.74717 $w=2e-08 $layer=<ENCRYPTED_LAYER_23> $thickness=5.2e-08
+ $X=0.325 $Y=0.17 $X2=0.325 $Y2=0.17
r33 1 13 19.3796 $w=1.8e-08 $l=1.8e-08 $layer=<ENCRYPTED_LAYER_4> $X=0.325
+ $Y=0.17 $X2=0.325 $Y2=0.17
r34 26 25 16.6668 $w=2e-08 $l=4.9e-08 $layer=<ENCRYPTED_LAYER_23>
+ $thickness=5.6e-08 $X=0.325 $Y=0.251 $X2=0.325 $Y2=0.202
r35 24 25 11.0545 $w=2e-08 $l=3.2e-08 $layer=<ENCRYPTED_LAYER_23>
+ $thickness=5.6e-08 $X=0.325 $Y=0.17 $X2=0.325 $Y2=0.202
r36 23 24 11.0545 $w=2e-08 $l=3.2e-08 $layer=<ENCRYPTED_LAYER_23>
+ $thickness=5.6e-08 $X=0.325 $Y=0.138 $X2=0.325 $Y2=0.17
r37 22 23 16.6668 $w=2e-08 $l=4.9e-08 $layer=<ENCRYPTED_LAYER_23>
+ $thickness=5.6e-08 $X=0.325 $Y=0.089 $X2=0.325 $Y2=0.138
r38 22 9 10.0341 $w=2e-08 $l=2.95e-08 $layer=<ENCRYPTED_LAYER_23>
+ $thickness=5.6e-08 $X=0.325 $Y=0.089 $X2=0.325 $Y2=0.0595
.ends

.subckt PM_Multiplier%XI3/NET3 VSS 28 32 43 65 66 69 70 18 19 17 23 14 24 5 13
+ 6 21 25 20 1 11 22 2 12 15
c1 1 VSS 0.000952122f $X=1.405 $Y=0.17
c2 2 VSS 0.00206701f $X=1.459 $Y=0.17
c3 5 VSS 0.0113409f $X=0.838 $Y=0.673
c4 6 VSS 0.00524096f $X=0.892 $Y=0.511
c5 11 VSS 0.0330347f $X=1.405 $Y=0.0595
c6 12 VSS 0.0464834f $X=1.459 $Y=0.17
c7 13 VSS 0.00368375f $X=0.8775 $Y=0.511
c8 14 VSS 0.00516602f $X=0.8235 $Y=0.673
c9 15 VSS 0.00278804f $X=0.99 $Y=0.4965
c10 16 VSS 0.00331188f $X=0.99 $Y=0.6875
c11 17 VSS 0.0175904f $X=0.968 $Y=0.691
c12 18 VSS 0.00865642f $X=0.968 $Y=0.493
c13 19 VSS 0.00660697f $X=0.99 $Y=0.592
c14 20 VSS 0.00172868f $X=1.406 $Y=0.17
c15 21 VSS 0.000962653f $X=1.049 $Y=0.17
c16 22 VSS 0.000906467f $X=1.049 $Y=0.592
c17 23 VSS 0.00182496f $X=0.99 $Y=0.592
c18 24 VSS 0.0149646f $X=1.049 $Y=0.2845
c19 25 VSS 0.0107558f $X=1.228 $Y=0.17
r1 70 68 0.0462963 $w=5.4e-08 $l=2.5e-09 $layer=<ENCRYPTED_LAYER_49>
+ $thickness=1e-09 $X=0.8553 $Y=0.673 $X2=0.8525 $Y2=0.673
r2 5 68 0.268519 $w=5.4e-08 $l=1.45e-08 $layer=<ENCRYPTED_LAYER_49>
+ $thickness=1e-09 $X=0.838 $Y=0.673 $X2=0.8525 $Y2=0.673
r3 14 5 0.268519 $w=5.4e-08 $l=1.45e-08 $layer=<ENCRYPTED_LAYER_49>
+ $thickness=1e-09 $X=0.8235 $Y=0.673 $X2=0.838 $Y2=0.673
r4 69 14 0.0462963 $w=5.4e-08 $l=2.5e-09 $layer=<ENCRYPTED_LAYER_49>
+ $thickness=1e-09 $X=0.8206 $Y=0.673 $X2=0.8235 $Y2=0.673
r5 66 64 0.0462963 $w=5.4e-08 $l=2.5e-09 $layer=<ENCRYPTED_LAYER_48>
+ $thickness=1e-09 $X=0.9093 $Y=0.511 $X2=0.9065 $Y2=0.511
r6 6 64 0.268519 $w=5.4e-08 $l=1.45e-08 $layer=<ENCRYPTED_LAYER_48>
+ $thickness=1e-09 $X=0.892 $Y=0.511 $X2=0.9065 $Y2=0.511
r7 13 6 0.268519 $w=5.4e-08 $l=1.45e-08 $layer=<ENCRYPTED_LAYER_48>
+ $thickness=1e-09 $X=0.8775 $Y=0.511 $X2=0.892 $Y2=0.511
r8 65 13 0.0462963 $w=5.4e-08 $l=2.5e-09 $layer=<ENCRYPTED_LAYER_48>
+ $thickness=1e-09 $X=0.8746 $Y=0.511 $X2=0.8775 $Y2=0.511
r9 5 61 19.3796 $w=1.8e-08 $l=1.8e-08 $layer=<ENCRYPTED_LAYER_7> $X=0.838
+ $Y=0.673 $X2=0.838 $Y2=0.691
r10 6 57 19.3796 $w=1.8e-08 $l=1.8e-08 $layer=<ENCRYPTED_LAYER_7> $X=0.892
+ $Y=0.511 $X2=0.892 $Y2=0.493
r11 61 62 3.14806 $w=1.8e-08 $l=1.35e-08 $layer=M1 $thickness=3.6e-08 $X=0.838
+ $Y=0.691 $X2=0.8515 $Y2=0.691
r12 60 62 9.44419 $w=1.8e-08 $l=4.05e-08 $layer=M1 $thickness=3.6e-08 $X=0.892
+ $Y=0.691 $X2=0.8515 $Y2=0.691
r13 59 60 11.5429 $w=1.8e-08 $l=4.95e-08 $layer=M1 $thickness=3.6e-08 $X=0.9415
+ $Y=0.691 $X2=0.892 $Y2=0.691
r14 17 59 6.17953 $w=1.8e-08 $l=2.65e-08 $layer=M1 $thickness=3.6e-08 $X=0.968
+ $Y=0.691 $X2=0.9415 $Y2=0.691
r15 57 58 8.39483 $w=1.8e-08 $l=3.6e-08 $layer=M1 $thickness=3.6e-08 $X=0.892
+ $Y=0.493 $X2=0.928 $Y2=0.493
r16 18 58 9.32759 $w=1.8e-08 $l=4e-08 $layer=M1 $thickness=3.6e-08 $X=0.968
+ $Y=0.493 $X2=0.928 $Y2=0.493
r17 16 54 1.37741 $w=1.8e-08 $l=9e-09 $layer=M1 $thickness=3.6e-08 $X=0.99
+ $Y=0.6875 $X2=0.99 $Y2=0.6785
r18 16 17 3.59271 $w=1.8e-08 $l=2.22767e-08 $layer=M1 $thickness=3.6e-08
+ $X=0.99 $Y=0.6875 $X2=0.968 $Y2=0.691
r19 15 52 1.37741 $w=1.8e-08 $l=9e-09 $layer=M1 $thickness=3.6e-08 $X=0.99
+ $Y=0.4965 $X2=0.99 $Y2=0.5055
r20 15 18 3.59271 $w=1.8e-08 $l=2.22767e-08 $layer=M1 $thickness=3.6e-08
+ $X=0.99 $Y=0.4965 $X2=0.968 $Y2=0.493
r21 53 54 9.44419 $w=1.8e-08 $l=4.05e-08 $layer=M1 $thickness=3.6e-08 $X=0.99
+ $Y=0.638 $X2=0.99 $Y2=0.6785
r22 51 52 2.09871 $w=1.8e-08 $l=9e-09 $layer=M1 $thickness=3.6e-08 $X=0.99
+ $Y=0.5145 $X2=0.99 $Y2=0.5055
r23 50 51 3.38125 $w=1.8e-08 $l=1.45e-08 $layer=M1 $thickness=3.6e-08 $X=0.99
+ $Y=0.529 $X2=0.99 $Y2=0.5145
r24 49 50 7.34548 $w=1.8e-08 $l=3.15e-08 $layer=M1 $thickness=3.6e-08 $X=0.99
+ $Y=0.5605 $X2=0.99 $Y2=0.529
r25 19 23 19.5347 $w=1.8e-08 $l=1.8e-08 $layer=V1 $X=0.99 $Y=0.592 $X2=0.99
+ $Y2=0.592
r26 19 49 7.34548 $w=1.8e-08 $l=3.15e-08 $layer=M1 $thickness=3.6e-08 $X=0.99
+ $Y=0.592 $X2=0.99 $Y2=0.5605
r27 19 53 10.7267 $w=1.8e-08 $l=4.6e-08 $layer=M1 $thickness=3.6e-08 $X=0.99
+ $Y=0.592 $X2=0.99 $Y2=0.638
r28 23 48 6.8791 $w=1.8e-08 $l=2.95e-08 $layer=M2 $thickness=3.6e-08 $X=0.99
+ $Y=0.592 $X2=1.0195 $Y2=0.592
r29 22 47 22.9524 $w=1.8e-08 $l=1.055e-07 $layer=M2 $thickness=3.6e-08 $X=1.049
+ $Y=0.592 $X2=1.049 $Y2=0.4865
r30 22 48 5.22999 $w=1.8e-08 $l=2.95e-08 $layer=M2 $thickness=3.6e-08 $X=1.049
+ $Y=0.592 $X2=1.0195 $Y2=0.592
r31 24 47 47.1043 $w=1.8e-08 $l=2.02e-07 $layer=M2 $thickness=3.6e-08 $X=1.049
+ $Y=0.2845 $X2=1.049 $Y2=0.4865
r32 21 25 40.0919 $w=1.8e-08 $l=1.79e-07 $layer=M2 $thickness=3.6e-08 $X=1.049
+ $Y=0.17 $X2=1.228 $Y2=0.17
r33 21 24 25.0511 $w=1.8e-08 $l=1.145e-07 $layer=M2 $thickness=3.6e-08 $X=1.049
+ $Y=0.17 $X2=1.049 $Y2=0.2845
r34 43 44 14.6259 $w=2e-08 $l=4.3e-08 $layer=<ENCRYPTED_LAYER_23>
+ $thickness=5.6e-08 $X=1.459 $Y=0.089 $X2=1.459 $Y2=0.132
r35 41 44 7.48304 $w=2e-08 $l=2.2e-08 $layer=<ENCRYPTED_LAYER_23>
+ $thickness=5.6e-08 $X=1.459 $Y=0.154 $X2=1.459 $Y2=0.132
r36 12 41 5.61228 $w=2e-08 $l=1.6e-08 $layer=<ENCRYPTED_LAYER_23>
+ $thickness=5.6e-08 $X=1.459 $Y=0.17 $X2=1.459 $Y2=0.154
r37 25 40 41.741 $w=1.8e-08 $l=1.79e-07 $layer=M2 $thickness=3.6e-08 $X=1.228
+ $Y=0.17 $X2=1.407 $Y2=0.17
r38 2 37 19.3796 $w=1.8e-08 $l=1.8e-08 $layer=<ENCRYPTED_LAYER_4> $X=1.459
+ $Y=0.17 $X2=1.459 $Y2=0.17
r39 2 12 6.74717 $w=2e-08 $layer=<ENCRYPTED_LAYER_23> $thickness=5.2e-08
+ $X=1.459 $Y=0.17 $X2=1.459 $Y2=0.17
r40 36 37 6.06293 $w=1.8e-08 $l=2.6e-08 $layer=M1 $thickness=3.6e-08 $X=1.433
+ $Y=0.17 $X2=1.459 $Y2=0.17
r41 20 36 6.29612 $w=1.8e-08 $l=2.7e-08 $layer=M1 $thickness=3.6e-08 $X=1.406
+ $Y=0.17 $X2=1.433 $Y2=0.17
r42 20 40 19.5347 $w=1.8e-08 $l=1.8e-08 $layer=V1 $X=1.406 $Y=0.17 $X2=1.407
+ $Y2=0.17
r43 1 30 6.74717 $w=2e-08 $layer=<ENCRYPTED_LAYER_23> $thickness=5.2e-08
+ $X=1.405 $Y=0.17 $X2=1.405 $Y2=0.17
r44 1 20 19.3796 $w=1.8e-08 $l=1.8e-08 $layer=<ENCRYPTED_LAYER_4> $X=1.405
+ $Y=0.17 $X2=1.406 $Y2=0.17
r45 32 31 16.6668 $w=2e-08 $l=4.9e-08 $layer=<ENCRYPTED_LAYER_23>
+ $thickness=5.6e-08 $X=1.405 $Y=0.251 $X2=1.405 $Y2=0.202
r46 30 31 11.0545 $w=2e-08 $l=3.2e-08 $layer=<ENCRYPTED_LAYER_23>
+ $thickness=5.6e-08 $X=1.405 $Y=0.17 $X2=1.405 $Y2=0.202
r47 29 30 11.0545 $w=2e-08 $l=3.2e-08 $layer=<ENCRYPTED_LAYER_23>
+ $thickness=5.6e-08 $X=1.405 $Y=0.138 $X2=1.405 $Y2=0.17
r48 28 29 16.6668 $w=2e-08 $l=4.9e-08 $layer=<ENCRYPTED_LAYER_23>
+ $thickness=5.6e-08 $X=1.405 $Y=0.089 $X2=1.405 $Y2=0.138
r49 28 11 10.0341 $w=2e-08 $l=2.95e-08 $layer=<ENCRYPTED_LAYER_23>
+ $thickness=5.6e-08 $X=1.405 $Y=0.089 $X2=1.405 $Y2=0.0595
.ends

.subckt PM_Multiplier%XI3/XI0/NET1 VSS 16 17 27 29 11 10 1 13 2 12 3
c1 1 VSS 0.00983227f $X=0.136 $Y=0.089
c2 2 VSS 0.00478564f $X=0.298 $Y=0.089
c3 3 VSS 0.004955f $X=0.406 $Y=0.089
c4 10 VSS 0.00346555f $X=0.1215 $Y=0.089
c5 11 VSS 0.00219836f $X=0.3 $Y=0.089
c6 12 VSS 0.0267816f $X=0.3915 $Y=0.089
c7 13 VSS 0.00785877f $X=0.136 $Y=0.107
r1 12 3 0.231482 $w=5.4e-08 $l=1.25e-08 $layer=<ENCRYPTED_LAYER_48>
+ $thickness=1e-09 $X=0.3915 $Y=0.089 $X2=0.406 $Y2=0.089
r2 29 12 0.0462963 $w=5.4e-08 $l=2.5e-09 $layer=<ENCRYPTED_LAYER_48>
+ $thickness=1e-09 $X=0.3886 $Y=0.089 $X2=0.3915 $Y2=0.089
r3 27 26 0.0462963 $w=5.4e-08 $l=2.5e-09 $layer=<ENCRYPTED_LAYER_48>
+ $thickness=1e-09 $X=0.3153 $Y=0.089 $X2=0.3125 $Y2=0.089
r4 11 26 0.231482 $w=5.4e-08 $l=1.25e-08 $layer=<ENCRYPTED_LAYER_48>
+ $thickness=1e-09 $X=0.3 $Y=0.089 $X2=0.3125 $Y2=0.089
r5 3 25 19.3796 $w=1.8e-08 $l=1.8e-08 $layer=<ENCRYPTED_LAYER_7> $X=0.406
+ $Y=0.089 $X2=0.406 $Y2=0.107
r6 2 20 19.3796 $w=1.8e-08 $l=1.8e-08 $layer=<ENCRYPTED_LAYER_7> $X=0.298
+ $Y=0.089 $X2=0.298 $Y2=0.107
r7 24 25 3.14806 $w=1.8e-08 $l=1.35e-08 $layer=M1 $thickness=3.6e-08 $X=0.3925
+ $Y=0.107 $X2=0.406 $Y2=0.107
r8 23 24 6.29612 $w=1.8e-08 $l=2.7e-08 $layer=M1 $thickness=3.6e-08 $X=0.3655
+ $Y=0.107 $X2=0.3925 $Y2=0.107
r9 22 23 8.39483 $w=1.8e-08 $l=3.6e-08 $layer=M1 $thickness=3.6e-08 $X=0.3295
+ $Y=0.107 $X2=0.3655 $Y2=0.107
r10 21 22 4.19742 $w=1.8e-08 $l=1.8e-08 $layer=M1 $thickness=3.6e-08 $X=0.3115
+ $Y=0.107 $X2=0.3295 $Y2=0.107
r11 20 21 3.14806 $w=1.8e-08 $l=1.35e-08 $layer=M1 $thickness=3.6e-08 $X=0.298
+ $Y=0.107 $X2=0.3115 $Y2=0.107
r12 19 20 3.14806 $w=1.8e-08 $l=1.35e-08 $layer=M1 $thickness=3.6e-08 $X=0.2845
+ $Y=0.107 $X2=0.298 $Y2=0.107
r13 18 19 16.7897 $w=1.8e-08 $l=7.2e-08 $layer=M1 $thickness=3.6e-08 $X=0.2125
+ $Y=0.107 $X2=0.2845 $Y2=0.107
r14 13 18 17.839 $w=1.8e-08 $l=7.65e-08 $layer=M1 $thickness=3.6e-08 $X=0.136
+ $Y=0.107 $X2=0.2125 $Y2=0.107
r15 1 13 19.3796 $w=1.8e-08 $l=1.8e-08 $layer=<ENCRYPTED_LAYER_7> $X=0.136
+ $Y=0.089 $X2=0.136 $Y2=0.107
r16 17 15 0.0462963 $w=5.4e-08 $l=2.5e-09 $layer=<ENCRYPTED_LAYER_48>
+ $thickness=1e-09 $X=0.1533 $Y=0.089 $X2=0.1505 $Y2=0.089
r17 1 15 0.268519 $w=5.4e-08 $l=1.45e-08 $layer=<ENCRYPTED_LAYER_48>
+ $thickness=1e-09 $X=0.136 $Y=0.089 $X2=0.1505 $Y2=0.089
r18 10 1 0.268519 $w=5.4e-08 $l=1.45e-08 $layer=<ENCRYPTED_LAYER_48>
+ $thickness=1e-09 $X=0.1215 $Y=0.089 $X2=0.136 $Y2=0.089
r19 16 10 0.0462963 $w=5.4e-08 $l=2.5e-09 $layer=<ENCRYPTED_LAYER_48>
+ $thickness=1e-09 $X=0.1186 $Y=0.089 $X2=0.1215 $Y2=0.089
r20 2 11 1e-05 $l=2e-09 $X=0.298 $Y=0.089 $X2=0.3 $Y2=0.089
.ends

.subckt PM_Multiplier%XI3/XI2/NET1 VSS 16 17 27 29 11 10 1 2 13 12 3
c1 1 VSS 0.00991878f $X=0.676 $Y=0.089
c2 2 VSS 0.00482708f $X=0.838 $Y=0.089
c3 3 VSS 0.00500741f $X=0.946 $Y=0.089
c4 10 VSS 0.00348909f $X=0.6615 $Y=0.089
c5 11 VSS 0.00220641f $X=0.84 $Y=0.089
c6 12 VSS 0.0268549f $X=0.9315 $Y=0.089
c7 13 VSS 0.0100148f $X=0.676 $Y=0.107
r1 12 3 0.231482 $w=5.4e-08 $l=1.25e-08 $layer=<ENCRYPTED_LAYER_48>
+ $thickness=1e-09 $X=0.9315 $Y=0.089 $X2=0.946 $Y2=0.089
r2 29 12 0.0462963 $w=5.4e-08 $l=2.5e-09 $layer=<ENCRYPTED_LAYER_48>
+ $thickness=1e-09 $X=0.9286 $Y=0.089 $X2=0.9315 $Y2=0.089
r3 27 26 0.0462963 $w=5.4e-08 $l=2.5e-09 $layer=<ENCRYPTED_LAYER_48>
+ $thickness=1e-09 $X=0.8553 $Y=0.089 $X2=0.8525 $Y2=0.089
r4 11 26 0.231482 $w=5.4e-08 $l=1.25e-08 $layer=<ENCRYPTED_LAYER_48>
+ $thickness=1e-09 $X=0.84 $Y=0.089 $X2=0.8525 $Y2=0.089
r5 3 25 19.3796 $w=1.8e-08 $l=1.8e-08 $layer=<ENCRYPTED_LAYER_7> $X=0.946
+ $Y=0.089 $X2=0.946 $Y2=0.107
r6 2 20 19.3796 $w=1.8e-08 $l=1.8e-08 $layer=<ENCRYPTED_LAYER_7> $X=0.838
+ $Y=0.089 $X2=0.838 $Y2=0.107
r7 24 25 3.14806 $w=1.8e-08 $l=1.35e-08 $layer=M1 $thickness=3.6e-08 $X=0.9325
+ $Y=0.107 $X2=0.946 $Y2=0.107
r8 23 24 6.29612 $w=1.8e-08 $l=2.7e-08 $layer=M1 $thickness=3.6e-08 $X=0.9055
+ $Y=0.107 $X2=0.9325 $Y2=0.107
r9 22 23 8.39483 $w=1.8e-08 $l=3.6e-08 $layer=M1 $thickness=3.6e-08 $X=0.8695
+ $Y=0.107 $X2=0.9055 $Y2=0.107
r10 21 22 4.19742 $w=1.8e-08 $l=1.8e-08 $layer=M1 $thickness=3.6e-08 $X=0.8515
+ $Y=0.107 $X2=0.8695 $Y2=0.107
r11 20 21 3.14806 $w=1.8e-08 $l=1.35e-08 $layer=M1 $thickness=3.6e-08 $X=0.838
+ $Y=0.107 $X2=0.8515 $Y2=0.107
r12 19 20 3.14806 $w=1.8e-08 $l=1.35e-08 $layer=M1 $thickness=3.6e-08 $X=0.8245
+ $Y=0.107 $X2=0.838 $Y2=0.107
r13 18 19 16.7897 $w=1.8e-08 $l=7.2e-08 $layer=M1 $thickness=3.6e-08 $X=0.7525
+ $Y=0.107 $X2=0.8245 $Y2=0.107
r14 13 18 17.839 $w=1.8e-08 $l=7.65e-08 $layer=M1 $thickness=3.6e-08 $X=0.676
+ $Y=0.107 $X2=0.7525 $Y2=0.107
r15 1 13 19.3796 $w=1.8e-08 $l=1.8e-08 $layer=<ENCRYPTED_LAYER_7> $X=0.676
+ $Y=0.089 $X2=0.676 $Y2=0.107
r16 17 15 0.0462963 $w=5.4e-08 $l=2.5e-09 $layer=<ENCRYPTED_LAYER_48>
+ $thickness=1e-09 $X=0.6933 $Y=0.089 $X2=0.6905 $Y2=0.089
r17 1 15 0.268519 $w=5.4e-08 $l=1.45e-08 $layer=<ENCRYPTED_LAYER_48>
+ $thickness=1e-09 $X=0.676 $Y=0.089 $X2=0.6905 $Y2=0.089
r18 10 1 0.268519 $w=5.4e-08 $l=1.45e-08 $layer=<ENCRYPTED_LAYER_48>
+ $thickness=1e-09 $X=0.6615 $Y=0.089 $X2=0.676 $Y2=0.089
r19 16 10 0.0462963 $w=5.4e-08 $l=2.5e-09 $layer=<ENCRYPTED_LAYER_48>
+ $thickness=1e-09 $X=0.6586 $Y=0.089 $X2=0.6615 $Y2=0.089
r20 2 11 1e-05 $l=2e-09 $X=0.838 $Y=0.089 $X2=0.84 $Y2=0.089
.ends

.subckt PM_Multiplier%XI3/XI1/NET1 VSS 16 17 27 29 12 3 13 11 1 10 2
c1 1 VSS 0.00995251f $X=0.676 $Y=0.511
c2 2 VSS 0.00481284f $X=0.838 $Y=0.511
c3 3 VSS 0.00532674f $X=0.946 $Y=0.511
c4 10 VSS 0.00343888f $X=0.6615 $Y=0.511
c5 11 VSS 0.00216976f $X=0.84 $Y=0.511
c6 12 VSS 0.0267644f $X=0.9315 $Y=0.511
c7 13 VSS 0.00935132f $X=0.676 $Y=0.529
r1 12 3 0.231482 $w=5.4e-08 $l=1.25e-08 $layer=<ENCRYPTED_LAYER_48>
+ $thickness=1e-09 $X=0.9315 $Y=0.511 $X2=0.946 $Y2=0.511
r2 29 12 0.0462963 $w=5.4e-08 $l=2.5e-09 $layer=<ENCRYPTED_LAYER_48>
+ $thickness=1e-09 $X=0.9286 $Y=0.511 $X2=0.9315 $Y2=0.511
r3 27 26 0.0462963 $w=5.4e-08 $l=2.5e-09 $layer=<ENCRYPTED_LAYER_48>
+ $thickness=1e-09 $X=0.8553 $Y=0.511 $X2=0.8525 $Y2=0.511
r4 11 26 0.231482 $w=5.4e-08 $l=1.25e-08 $layer=<ENCRYPTED_LAYER_48>
+ $thickness=1e-09 $X=0.84 $Y=0.511 $X2=0.8525 $Y2=0.511
r5 3 25 19.3796 $w=1.8e-08 $l=1.8e-08 $layer=<ENCRYPTED_LAYER_7> $X=0.946
+ $Y=0.511 $X2=0.946 $Y2=0.529
r6 2 20 19.3796 $w=1.8e-08 $l=1.8e-08 $layer=<ENCRYPTED_LAYER_7> $X=0.838
+ $Y=0.511 $X2=0.838 $Y2=0.529
r7 24 25 3.14806 $w=1.8e-08 $l=1.35e-08 $layer=M1 $thickness=3.6e-08 $X=0.9325
+ $Y=0.529 $X2=0.946 $Y2=0.529
r8 23 24 6.29612 $w=1.8e-08 $l=2.7e-08 $layer=M1 $thickness=3.6e-08 $X=0.9055
+ $Y=0.529 $X2=0.9325 $Y2=0.529
r9 22 23 8.39483 $w=1.8e-08 $l=3.6e-08 $layer=M1 $thickness=3.6e-08 $X=0.8695
+ $Y=0.529 $X2=0.9055 $Y2=0.529
r10 21 22 4.19742 $w=1.8e-08 $l=1.8e-08 $layer=M1 $thickness=3.6e-08 $X=0.8515
+ $Y=0.529 $X2=0.8695 $Y2=0.529
r11 20 21 3.14806 $w=1.8e-08 $l=1.35e-08 $layer=M1 $thickness=3.6e-08 $X=0.838
+ $Y=0.529 $X2=0.8515 $Y2=0.529
r12 19 20 3.14806 $w=1.8e-08 $l=1.35e-08 $layer=M1 $thickness=3.6e-08 $X=0.8245
+ $Y=0.529 $X2=0.838 $Y2=0.529
r13 18 19 16.7897 $w=1.8e-08 $l=7.2e-08 $layer=M1 $thickness=3.6e-08 $X=0.7525
+ $Y=0.529 $X2=0.8245 $Y2=0.529
r14 13 18 17.839 $w=1.8e-08 $l=7.65e-08 $layer=M1 $thickness=3.6e-08 $X=0.676
+ $Y=0.529 $X2=0.7525 $Y2=0.529
r15 1 13 19.3796 $w=1.8e-08 $l=1.8e-08 $layer=<ENCRYPTED_LAYER_7> $X=0.676
+ $Y=0.511 $X2=0.676 $Y2=0.529
r16 17 15 0.0462963 $w=5.4e-08 $l=2.5e-09 $layer=<ENCRYPTED_LAYER_48>
+ $thickness=1e-09 $X=0.6933 $Y=0.511 $X2=0.6905 $Y2=0.511
r17 1 15 0.268519 $w=5.4e-08 $l=1.45e-08 $layer=<ENCRYPTED_LAYER_48>
+ $thickness=1e-09 $X=0.676 $Y=0.511 $X2=0.6905 $Y2=0.511
r18 10 1 0.268519 $w=5.4e-08 $l=1.45e-08 $layer=<ENCRYPTED_LAYER_48>
+ $thickness=1e-09 $X=0.6615 $Y=0.511 $X2=0.676 $Y2=0.511
r19 16 10 0.0462963 $w=5.4e-08 $l=2.5e-09 $layer=<ENCRYPTED_LAYER_48>
+ $thickness=1e-09 $X=0.6586 $Y=0.511 $X2=0.6615 $Y2=0.511
r20 2 11 1e-05 $l=2e-09 $X=0.838 $Y=0.511 $X2=0.84 $Y2=0.511
.ends

.subckt PM_Multiplier%XI3/NET1 VSS 49 72 77 106 109 113 126 127 130 131 27 25
+ 12 21 33 20 11 36 45 23 37 40 24 46 35 38 4 34 1 19 2 31 44 26 32 30 22 41 43
+ 42 29 3 39 28 5 17 18
c1 1 VSS 0.00226665f $X=0.649 $Y=0.592
c2 2 VSS 0.00240255f $X=0.703 $Y=0.592
c3 3 VSS 0.00218182f $X=0.811 $Y=0.592
c4 4 VSS 0.00100339f $X=0.865 $Y=0.17
c5 5 VSS 0.0020696f $X=0.919 $Y=0.17
c6 11 VSS 0.0113961f $X=0.298 $Y=0.251
c7 12 VSS 0.00518548f $X=0.352 $Y=0.089
c8 17 VSS 0.0464176f $X=0.649 $Y=0.4815
c9 18 VSS 0.0474203f $X=0.703 $Y=0.592
c10 19 VSS 0.0456468f $X=0.811 $Y=0.592
c11 20 VSS 0.031982f $X=0.865 $Y=0.17
c12 21 VSS 0.0454321f $X=0.919 $Y=0.17
c13 22 VSS 0.00473748f $X=0.3375 $Y=0.089
c14 23 VSS 0.00619951f $X=0.2835 $Y=0.251
c15 24 VSS 0.00296953f $X=0.45 $Y=0.0745
c16 25 VSS 0.000263456f $X=0.45 $Y=0.17
c17 26 VSS 0.00262024f $X=0.45 $Y=0.269
c18 27 VSS 0.000669933f $X=0.514 $Y=0.17
c19 28 VSS 0.00102017f $X=0.514 $Y=0.381
c20 29 VSS 0.00209909f $X=0.514 $Y=0.592
c21 30 VSS 0.00480795f $X=0.582 $Y=0.5
c22 31 VSS 0.000554707f $X=0.582 $Y=0.592
c23 32 VSS 0.00650135f $X=0.582 $Y=0.684
c24 33 VSS 0.0174685f $X=0.428 $Y=0.269
c25 34 VSS 0.00835581f $X=0.428 $Y=0.071
c26 35 VSS 0.00186706f $X=0.45 $Y=0.1385
c27 36 VSS 0.00231055f $X=0.45 $Y=0.2195
c28 37 VSS 0.000942772f $X=0.4825 $Y=0.17
c29 38 VSS 0.00858994f $X=0.514 $Y=0.343
c30 39 VSS 0.0120806f $X=0.514 $Y=0.546
c31 40 VSS 0.0312677f $X=0.5455 $Y=0.381
c32 41 VSS 0.00198796f $X=0.5705 $Y=0.592
c33 42 VSS 0.00255742f $X=0.582 $Y=0.5605
c34 43 VSS 0.00398574f $X=0.582 $Y=0.638
c35 44 VSS 0.00469873f $X=0.6245 $Y=0.592
c36 45 VSS 0.00145567f $X=0.866 $Y=0.17
c37 46 VSS 0.0103932f $X=0.867 $Y=0.2755
r1 131 129 0.0462963 $w=5.4e-08 $l=2.5e-09 $layer=<ENCRYPTED_LAYER_49>
+ $thickness=1e-09 $X=0.3153 $Y=0.251 $X2=0.3125 $Y2=0.251
r2 11 129 0.268519 $w=5.4e-08 $l=1.45e-08 $layer=<ENCRYPTED_LAYER_49>
+ $thickness=1e-09 $X=0.298 $Y=0.251 $X2=0.3125 $Y2=0.251
r3 23 11 0.268519 $w=5.4e-08 $l=1.45e-08 $layer=<ENCRYPTED_LAYER_49>
+ $thickness=1e-09 $X=0.2835 $Y=0.251 $X2=0.298 $Y2=0.251
r4 130 23 0.0462963 $w=5.4e-08 $l=2.5e-09 $layer=<ENCRYPTED_LAYER_49>
+ $thickness=1e-09 $X=0.2806 $Y=0.251 $X2=0.2835 $Y2=0.251
r5 127 125 0.0462963 $w=5.4e-08 $l=2.5e-09 $layer=<ENCRYPTED_LAYER_48>
+ $thickness=1e-09 $X=0.3693 $Y=0.089 $X2=0.3665 $Y2=0.089
r6 12 125 0.268519 $w=5.4e-08 $l=1.45e-08 $layer=<ENCRYPTED_LAYER_48>
+ $thickness=1e-09 $X=0.352 $Y=0.089 $X2=0.3665 $Y2=0.089
r7 22 12 0.268519 $w=5.4e-08 $l=1.45e-08 $layer=<ENCRYPTED_LAYER_48>
+ $thickness=1e-09 $X=0.3375 $Y=0.089 $X2=0.352 $Y2=0.089
r8 126 22 0.0462963 $w=5.4e-08 $l=2.5e-09 $layer=<ENCRYPTED_LAYER_48>
+ $thickness=1e-09 $X=0.3346 $Y=0.089 $X2=0.3375 $Y2=0.089
r9 11 122 19.3796 $w=1.8e-08 $l=1.8e-08 $layer=<ENCRYPTED_LAYER_7> $X=0.298
+ $Y=0.251 $X2=0.298 $Y2=0.269
r10 12 118 19.3796 $w=1.8e-08 $l=1.8e-08 $layer=<ENCRYPTED_LAYER_7> $X=0.352
+ $Y=0.089 $X2=0.352 $Y2=0.071
r11 122 123 3.14806 $w=1.8e-08 $l=1.35e-08 $layer=M1 $thickness=3.6e-08
+ $X=0.298 $Y=0.269 $X2=0.3115 $Y2=0.269
r12 121 123 9.44419 $w=1.8e-08 $l=4.05e-08 $layer=M1 $thickness=3.6e-08
+ $X=0.352 $Y=0.269 $X2=0.3115 $Y2=0.269
r13 120 121 11.5429 $w=1.8e-08 $l=4.95e-08 $layer=M1 $thickness=3.6e-08
+ $X=0.4015 $Y=0.269 $X2=0.352 $Y2=0.269
r14 33 120 6.17953 $w=1.8e-08 $l=2.65e-08 $layer=M1 $thickness=3.6e-08 $X=0.428
+ $Y=0.269 $X2=0.4015 $Y2=0.269
r15 118 119 8.39483 $w=1.8e-08 $l=3.6e-08 $layer=M1 $thickness=3.6e-08 $X=0.352
+ $Y=0.071 $X2=0.388 $Y2=0.071
r16 34 119 9.32759 $w=1.8e-08 $l=4e-08 $layer=M1 $thickness=3.6e-08 $X=0.428
+ $Y=0.071 $X2=0.388 $Y2=0.071
r17 26 36 9.89378 $w=1.8e-08 $l=4.95e-08 $layer=M1 $thickness=3.6e-08 $X=0.45
+ $Y=0.269 $X2=0.45 $Y2=0.2195
r18 26 33 3.48106 $w=1.8e-08 $l=2.2e-08 $layer=M1 $thickness=3.6e-08 $X=0.45
+ $Y=0.269 $X2=0.428 $Y2=0.269
r19 24 104 1.37741 $w=1.8e-08 $l=9e-09 $layer=M1 $thickness=3.6e-08 $X=0.45
+ $Y=0.0745 $X2=0.45 $Y2=0.0835
r20 24 34 3.59271 $w=1.8e-08 $l=2.22767e-08 $layer=M1 $thickness=3.6e-08
+ $X=0.45 $Y=0.0745 $X2=0.428 $Y2=0.071
r21 113 114 14.6259 $w=2e-08 $l=4.3e-08 $layer=<ENCRYPTED_LAYER_23>
+ $thickness=5.6e-08 $X=0.919 $Y=0.089 $X2=0.919 $Y2=0.132
r22 111 114 7.48304 $w=2e-08 $l=2.2e-08 $layer=<ENCRYPTED_LAYER_23>
+ $thickness=5.6e-08 $X=0.919 $Y=0.154 $X2=0.919 $Y2=0.132
r23 21 111 5.61228 $w=2e-08 $l=1.6e-08 $layer=<ENCRYPTED_LAYER_23>
+ $thickness=5.6e-08 $X=0.919 $Y=0.17 $X2=0.919 $Y2=0.154
r24 109 108 16.6668 $w=2e-08 $l=4.9e-08 $layer=<ENCRYPTED_LAYER_23>
+ $thickness=5.6e-08 $X=0.865 $Y=0.251 $X2=0.865 $Y2=0.202
r25 106 107 16.6668 $w=2e-08 $l=4.9e-08 $layer=<ENCRYPTED_LAYER_23>
+ $thickness=5.6e-08 $X=0.865 $Y=0.089 $X2=0.865 $Y2=0.138
r26 20 107 11.0545 $w=2e-08 $l=3.2e-08 $layer=<ENCRYPTED_LAYER_23>
+ $thickness=5.6e-08 $X=0.865 $Y=0.17 $X2=0.865 $Y2=0.138
r27 20 108 11.0545 $w=2e-08 $l=3.2e-08 $layer=<ENCRYPTED_LAYER_23>
+ $thickness=5.6e-08 $X=0.865 $Y=0.17 $X2=0.865 $Y2=0.202
r28 103 104 2.09871 $w=1.8e-08 $l=9e-09 $layer=M1 $thickness=3.6e-08 $X=0.45
+ $Y=0.0925 $X2=0.45 $Y2=0.0835
r29 102 103 3.38125 $w=1.8e-08 $l=1.45e-08 $layer=M1 $thickness=3.6e-08 $X=0.45
+ $Y=0.107 $X2=0.45 $Y2=0.0925