* Design:	Neuron
* Created:	"Fri Dec 9 2022"
* Vendor:	"Mentor Graphics Corporation"
* Program:	"Calibre xACT 3D"
* Version:	"v2017.4_19.14"
* Corner Name: typical_27
* Nominal Temperature: 25C
* Circuit Temperature: 27C
* 
* Integrated TICER reduction is not enabled.
* SHORT DELAY THRESHOLD: 2e-15
* Fill Mode: NG
* PEX REDUCE CC ABSOLUTE : 1
* PEX REDUCE CC RELATIVE : 0.01
* Delta transform mode : 344834

* .include "Neuron.pex.netlist.pex"

* Start of included file Neuron.pex.netlist.pex

.subckt PM_Neuron%XI1/XI3/XI0/NET1 VSS 16 17 27 29 11 10 1 13 2 12 3
c1 1 VSS 0.00983678f $X=0.108 $Y=0.054
c2 2 VSS 0.00478783f $X=0.27 $Y=0.054
c3 3 VSS 0.00495624f $X=0.378 $Y=0.054
c4 10 VSS 0.00346714f $X=0.0935 $Y=0.054
c5 11 VSS 0.00219937f $X=0.272 $Y=0.054
c6 12 VSS 0.0267939f $X=0.3635 $Y=0.054
c7 13 VSS 0.00796456f $X=0.108 $Y=0.072
r1 12 3 0.231482 $w=5.4e-08 $l=1.25e-08 $layer=<ENCRYPTED_LAYER_48>
+ $thickness=1e-09 $X=0.3635 $Y=0.054 $X2=0.378 $Y2=0.054
r2 29 12 0.0462963 $w=5.4e-08 $l=2.5e-09 $layer=<ENCRYPTED_LAYER_48>
+ $thickness=1e-09 $X=0.3606 $Y=0.054 $X2=0.3635 $Y2=0.054
r3 27 26 0.0462963 $w=5.4e-08 $l=2.5e-09 $layer=<ENCRYPTED_LAYER_48>
+ $thickness=1e-09 $X=0.2873 $Y=0.054 $X2=0.2845 $Y2=0.054
r4 11 26 0.231482 $w=5.4e-08 $l=1.25e-08 $layer=<ENCRYPTED_LAYER_48>
+ $thickness=1e-09 $X=0.272 $Y=0.054 $X2=0.2845 $Y2=0.054
r5 3 25 19.3796 $w=1.8e-08 $l=1.8e-08 $layer=<ENCRYPTED_LAYER_7> $X=0.378
+ $Y=0.054 $X2=0.378 $Y2=0.072
r6 2 20 19.3796 $w=1.8e-08 $l=1.8e-08 $layer=<ENCRYPTED_LAYER_7> $X=0.27
+ $Y=0.054 $X2=0.27 $Y2=0.072
r7 24 25 3.14806 $w=1.8e-08 $l=1.35e-08 $layer=M1 $thickness=3.6e-08 $X=0.3645
+ $Y=0.072 $X2=0.378 $Y2=0.072
r8 23 24 6.29612 $w=1.8e-08 $l=2.7e-08 $layer=M1 $thickness=3.6e-08 $X=0.3375
+ $Y=0.072 $X2=0.3645 $Y2=0.072
r9 22 23 8.39483 $w=1.8e-08 $l=3.6e-08 $layer=M1 $thickness=3.6e-08 $X=0.3015
+ $Y=0.072 $X2=0.3375 $Y2=0.072
r10 21 22 4.19742 $w=1.8e-08 $l=1.8e-08 $layer=M1 $thickness=3.6e-08 $X=0.2835
+ $Y=0.072 $X2=0.3015 $Y2=0.072
r11 20 21 3.14806 $w=1.8e-08 $l=1.35e-08 $layer=M1 $thickness=3.6e-08 $X=0.27
+ $Y=0.072 $X2=0.2835 $Y2=0.072
r12 19 20 3.14806 $w=1.8e-08 $l=1.35e-08 $layer=M1 $thickness=3.6e-08 $X=0.2565
+ $Y=0.072 $X2=0.27 $Y2=0.072
r13 18 19 16.7897 $w=1.8e-08 $l=7.2e-08 $layer=M1 $thickness=3.6e-08 $X=0.1845
+ $Y=0.072 $X2=0.2565 $Y2=0.072
r14 13 18 17.839 $w=1.8e-08 $l=7.65e-08 $layer=M1 $thickness=3.6e-08 $X=0.108
+ $Y=0.072 $X2=0.1845 $Y2=0.072
r15 1 13 19.3796 $w=1.8e-08 $l=1.8e-08 $layer=<ENCRYPTED_LAYER_7> $X=0.108
+ $Y=0.054 $X2=0.108 $Y2=0.072
r16 17 15 0.0462963 $w=5.4e-08 $l=2.5e-09 $layer=<ENCRYPTED_LAYER_48>
+ $thickness=1e-09 $X=0.1253 $Y=0.054 $X2=0.1225 $Y2=0.054
r17 1 15 0.268519 $w=5.4e-08 $l=1.45e-08 $layer=<ENCRYPTED_LAYER_48>
+ $thickness=1e-09 $X=0.108 $Y=0.054 $X2=0.1225 $Y2=0.054
r18 10 1 0.268519 $w=5.4e-08 $l=1.45e-08 $layer=<ENCRYPTED_LAYER_48>
+ $thickness=1e-09 $X=0.0935 $Y=0.054 $X2=0.108 $Y2=0.054
r19 16 10 0.0462963 $w=5.4e-08 $l=2.5e-09 $layer=<ENCRYPTED_LAYER_48>
+ $thickness=1e-09 $X=0.0906 $Y=0.054 $X2=0.0935 $Y2=0.054
r20 2 11 1e-05 $l=2e-09 $X=0.27 $Y=0.054 $X2=0.272 $Y2=0.054
.ends

.subckt PM_Neuron%XI1/XI3/NET1 VSS 49 72 77 106 109 113 126 127 130 131 27 25
+ 12 21 33 20 11 36 45 23 37 40 24 46 35 38 4 34 19 1 2 31 44 26 32 30 22 41 43
+ 42 29 3 39 28 5 17 18
c1 1 VSS 0.00315699f $X=0.621 $Y=0.557
c2 2 VSS 0.00329957f $X=0.675 $Y=0.557
c3 3 VSS 0.00315905f $X=0.783 $Y=0.557
c4 4 VSS 0.00192446f $X=0.837 $Y=0.135
c5 5 VSS 0.00295866f $X=0.891 $Y=0.135
c6 11 VSS 0.0122782f $X=0.27 $Y=0.216
c7 12 VSS 0.00613374f $X=0.324 $Y=0.054
c8 17 VSS 0.0479683f $X=0.621 $Y=0.4465
c9 18 VSS 0.048938f $X=0.675 $Y=0.557
c10 19 VSS 0.0469711f $X=0.783 $Y=0.557
c11 20 VSS 0.0324717f $X=0.837 $Y=0.135
c12 21 VSS 0.0459195f $X=0.891 $Y=0.135
c13 22 VSS 0.00346205f $X=0.3095 $Y=0.054
c14 23 VSS 0.00521636f $X=0.2555 $Y=0.216
c15 24 VSS 0.00322798f $X=0.422 $Y=0.0395
c16 25 VSS 0.000655597f $X=0.422 $Y=0.135
c17 26 VSS 0.00303152f $X=0.422 $Y=0.234
c18 27 VSS 0.000896637f $X=0.486 $Y=0.135
c19 28 VSS 0.0011857f $X=0.486 $Y=0.346
c20 29 VSS 0.00174849f $X=0.486 $Y=0.557
c21 30 VSS 0.00517329f $X=0.554 $Y=0.465
c22 31 VSS 0.000584273f $X=0.554 $Y=0.557
c23 32 VSS 0.00606742f $X=0.554 $Y=0.649
c24 33 VSS 0.0173285f $X=0.4 $Y=0.234
c25 34 VSS 0.00875138f $X=0.4 $Y=0.036
c26 35 VSS 0.0020995f $X=0.422 $Y=0.1035
c27 36 VSS 0.00243163f $X=0.422 $Y=0.1845
c28 37 VSS 0.00123617f $X=0.4545 $Y=0.135
c29 38 VSS 0.00792408f $X=0.486 $Y=0.308
c30 39 VSS 0.00903493f $X=0.486 $Y=0.511
c31 40 VSS 0.0297668f $X=0.5175 $Y=0.346
c32 41 VSS 0.00177543f $X=0.5425 $Y=0.557
c33 42 VSS 0.00281361f $X=0.554 $Y=0.5255
c34 43 VSS 0.00327308f $X=0.554 $Y=0.603
c35 44 VSS 0.00496204f $X=0.5965 $Y=0.557
c36 45 VSS 0.00209529f $X=0.838 $Y=0.135
c37 46 VSS 0.00771494f $X=0.839 $Y=0.2405
r1 131 129 0.0462963 $w=5.4e-08 $l=2.5e-09 $layer=<ENCRYPTED_LAYER_49>
+ $thickness=1e-09 $X=0.2873 $Y=0.216 $X2=0.2845 $Y2=0.216
r2 11 129 0.268519 $w=5.4e-08 $l=1.45e-08 $layer=<ENCRYPTED_LAYER_49>
+ $thickness=1e-09 $X=0.27 $Y=0.216 $X2=0.2845 $Y2=0.216
r3 23 11 0.268519 $w=5.4e-08 $l=1.45e-08 $layer=<ENCRYPTED_LAYER_49>
+ $thickness=1e-09 $X=0.2555 $Y=0.216 $X2=0.27 $Y2=0.216
r4 130 23 0.0462963 $w=5.4e-08 $l=2.5e-09 $layer=<ENCRYPTED_LAYER_49>
+ $thickness=1e-09 $X=0.2526 $Y=0.216 $X2=0.2555 $Y2=0.216
r5 127 125 0.0462963 $w=5.4e-08 $l=2.5e-09 $layer=<ENCRYPTED_LAYER_48>
+ $thickness=1e-09 $X=0.3413 $Y=0.054 $X2=0.3385 $Y2=0.054
r6 12 125 0.268519 $w=5.4e-08 $l=1.45e-08 $layer=<ENCRYPTED_LAYER_48>
+ $thickness=1e-09 $X=0.324 $Y=0.054 $X2=0.3385 $Y2=0.054
r7 22 12 0.268519 $w=5.4e-08 $l=1.45e-08 $layer=<ENCRYPTED_LAYER_48>
+ $thickness=1e-09 $X=0.3095 $Y=0.054 $X2=0.324 $Y2=0.054
r8 126 22 0.0462963 $w=5.4e-08 $l=2.5e-09 $layer=<ENCRYPTED_LAYER_48>
+ $thickness=1e-09 $X=0.3066 $Y=0.054 $X2=0.3095 $Y2=0.054
r9 11 122 19.3796 $w=1.8e-08 $l=1.8e-08 $layer=<ENCRYPTED_LAYER_7> $X=0.27
+ $Y=0.216 $X2=0.27 $Y2=0.234
r10 12 118 19.3796 $w=1.8e-08 $l=1.8e-08 $layer=<ENCRYPTED_LAYER_7> $X=0.324
+ $Y=0.054 $X2=0.324 $Y2=0.036
r11 122 123 3.14806 $w=1.8e-08 $l=1.35e-08 $layer=M1 $thickness=3.6e-08 $X=0.27
+ $Y=0.234 $X2=0.2835 $Y2=0.234
r12 121 123 9.44419 $w=1.8e-08 $l=4.05e-08 $layer=M1 $thickness=3.6e-08
+ $X=0.324 $Y=0.234 $X2=0.2835 $Y2=0.234
r13 120 121 11.5429 $w=1.8e-08 $l=4.95e-08 $layer=M1 $thickness=3.6e-08
+ $X=0.3735 $Y=0.234 $X2=0.324 $Y2=0.234
r14 33 120 6.17953 $w=1.8e-08 $l=2.65e-08 $layer=M1 $thickness=3.6e-08 $X=0.4
+ $Y=0.234 $X2=0.3735 $Y2=0.234
r15 118 119 8.39483 $w=1.8e-08 $l=3.6e-08 $layer=M1 $thickness=3.6e-08 $X=0.324
+ $Y=0.036 $X2=0.36 $Y2=0.036
r16 34 119 9.32759 $w=1.8e-08 $l=4e-08 $layer=M1 $thickness=3.6e-08 $X=0.4
+ $Y=0.036 $X2=0.36 $Y2=0.036
r17 26 36 9.89378 $w=1.8e-08 $l=4.95e-08 $layer=M1 $thickness=3.6e-08 $X=0.422
+ $Y=0.234 $X2=0.422 $Y2=0.1845
r18 26 33 3.48106 $w=1.8e-08 $l=2.2e-08 $layer=M1 $thickness=3.6e-08 $X=0.422
+ $Y=0.234 $X2=0.4 $Y2=0.234
r19 24 104 1.37741 $w=1.8e-08 $l=9e-09 $layer=M1 $thickness=3.6e-08 $X=0.422
+ $Y=0.0395 $X2=0.422 $Y2=0.0485
r20 24 34 3.59271 $w=1.8e-08 $l=2.22767e-08 $layer=M1 $thickness=3.6e-08
+ $X=0.422 $Y=0.0395 $X2=0.4 $Y2=0.036
r21 113 114 14.6259 $w=2e-08 $l=4.3e-08 $layer=<ENCRYPTED_LAYER_23>
+ $thickness=5.6e-08 $X=0.891 $Y=0.054 $X2=0.891 $Y2=0.097
r22 111 114 7.48304 $w=2e-08 $l=2.2e-08 $layer=<ENCRYPTED_LAYER_23>
+ $thickness=5.6e-08 $X=0.891 $Y=0.119 $X2=0.891 $Y2=0.097
r23 21 111 5.61228 $w=2e-08 $l=1.6e-08 $layer=<ENCRYPTED_LAYER_23>
+ $thickness=5.6e-08 $X=0.891 $Y=0.135 $X2=0.891 $Y2=0.119
r24 109 108 16.6668 $w=2e-08 $l=4.9e-08 $layer=<ENCRYPTED_LAYER_23>
+ $thickness=5.6e-08 $X=0.837 $Y=0.216 $X2=0.837 $Y2=0.167
r25 106 107 16.6668 $w=2e-08 $l=4.9e-08 $layer=<ENCRYPTED_LAYER_23>
+ $thickness=5.6e-08 $X=0.837 $Y=0.054 $X2=0.837 $Y2=0.103
r26 20 107 11.0545 $w=2e-08 $l=3.2e-08 $layer=<ENCRYPTED_LAYER_23>
+ $thickness=5.6e-08 $X=0.837 $Y=0.135 $X2=0.837 $Y2=0.103
r27 20 108 11.0545 $w=2e-08 $l=3.2e-08 $layer=<ENCRYPTED_LAYER_23>
+ $thickness=5.6e-08 $X=0.837 $Y=0.135 $X2=0.837 $Y2=0.167
r28 103 104 2.09871 $w=1.8e-08 $l=9e-09 $layer=M1 $thickness=3.6e-08 $X=0.422
+ $Y=0.0575 $X2=0.422 $Y2=0.0485
r29 102 103 3.38125 $w=1.8e-08 $l=1.45e-08 $layer=M1 $thickness=3.6e-08
+ $X=0.422 $Y=0.072 $X2=0.422 $Y2=0.0575
r30 35 102 7.34548 $w=1.8e-08 $l=3.15e-08 $layer=M1 $thickness=3.6e-08 $X=0.422
+ $Y=0.1035 $X2=0.422 $Y2=0.072
r31 5 97 19.3796 $w=1.8e-08 $l=1.8e-08 $layer=<ENCRYPTED_LAYER_4> $X=0.891
+ $Y=0.135 $X2=0.891 $Y2=0.135
r32 5 21 6.74717 $w=2e-08 $layer=<ENCRYPTED_LAYER_23> $thickness=5.2e-08
+ $X=0.891 $Y=0.135 $X2=0.891 $Y2=0.135
r33 4 45 19.3796 $w=1.8e-08 $l=1.8e-08 $layer=<ENCRYPTED_LAYER_4> $X=0.837
+ $Y=0.135 $X2=0.838 $Y2=0.135
r34 4 20 6.74717 $w=2e-08 $layer=<ENCRYPTED_LAYER_23> $thickness=5.2e-08
+ $X=0.837 $Y=0.135 $X2=0.837 $Y2=0.135
r35 25 95 1.03499 $w=1.8e-08 $l=9.5e-09 $layer=M1 $thickness=3.6e-08 $X=0.422
+ $Y=0.135 $X2=0.4315 $Y2=0.135
r36 25 35 6.16517 $w=1.8e-08 $l=3.15e-08 $layer=M1 $thickness=3.6e-08 $X=0.422
+ $Y=0.135 $X2=0.422 $Y2=0.1035
r37 25 36 10.3626 $w=1.8e-08 $l=4.95e-08 $layer=M1 $thickness=3.6e-08 $X=0.422
+ $Y=0.135 $X2=0.422 $Y2=0.1845
r38 96 97 6.06293 $w=1.8e-08 $l=2.6e-08 $layer=M1 $thickness=3.6e-08 $X=0.865
+ $Y=0.135 $X2=0.891 $Y2=0.135
r39 45 96 6.29612 $w=1.8e-08 $l=2.7e-08 $layer=M1 $thickness=3.6e-08 $X=0.838
+ $Y=0.135 $X2=0.865 $Y2=0.135
r40 45 94 19.5347 $w=1.8e-08 $l=1.8e-08 $layer=V1 $X=0.838 $Y=0.135 $X2=0.839
+ $Y2=0.135
r41 37 95 5.36336 $w=1.8e-08 $l=2.3e-08 $layer=M1 $thickness=3.6e-08 $X=0.4545
+ $Y=0.135 $X2=0.4315 $Y2=0.135
r42 46 93 24.6015 $w=1.8e-08 $l=1.055e-07 $layer=M2 $thickness=3.6e-08 $X=0.839
+ $Y=0.2405 $X2=0.839 $Y2=0.346
r43 46 94 24.6015 $w=1.8e-08 $l=1.055e-07 $layer=M2 $thickness=3.6e-08 $X=0.839
+ $Y=0.2405 $X2=0.839 $Y2=0.135
r44 27 89 9.07762 $w=1.8e-08 $l=4.6e-08 $layer=M1 $thickness=3.6e-08 $X=0.486
+ $Y=0.135 $X2=0.486 $Y2=0.181
r45 27 37 5.69636 $w=1.8e-08 $l=3.15e-08 $layer=M1 $thickness=3.6e-08 $X=0.486
+ $Y=0.135 $X2=0.4545 $Y2=0.135
r46 91 93 19.5347 $w=1.8e-08 $l=1.8e-08 $layer=V1 $X=0.839 $Y=0.346 $X2=0.839
+ $Y2=0.346
r47 90 91 35.9112 $w=1.8e-08 $l=1.54e-07 $layer=M1 $thickness=3.6e-08 $X=0.685
+ $Y=0.346 $X2=0.839 $Y2=0.346
r48 40 90 39.0593 $w=1.8e-08 $l=1.675e-07 $layer=M1 $thickness=3.6e-08
+ $X=0.5175 $Y=0.346 $X2=0.685 $Y2=0.346
r49 88 89 10.7267 $w=1.8e-08 $l=4.6e-08 $layer=M1 $thickness=3.6e-08 $X=0.486
+ $Y=0.227 $X2=0.486 $Y2=0.181
r50 87 88 2.91487 $w=1.8e-08 $l=1.25e-08 $layer=M1 $thickness=3.6e-08 $X=0.486
+ $Y=0.2395 $X2=0.486 $Y2=0.227
r51 86 87 2.91487 $w=1.8e-08 $l=1.25e-08 $layer=M1 $thickness=3.6e-08 $X=0.486
+ $Y=0.252 $X2=0.486 $Y2=0.2395
r52 85 86 4.19742 $w=1.8e-08 $l=1.8e-08 $layer=M1 $thickness=3.6e-08 $X=0.486
+ $Y=0.27 $X2=0.486 $Y2=0.252
r53 38 85 8.86121 $w=1.8e-08 $l=3.8e-08 $layer=M1 $thickness=3.6e-08 $X=0.486
+ $Y=0.308 $X2=0.486 $Y2=0.27
r54 28 84 7.6809 $w=1.8e-08 $l=3.8e-08 $layer=M1 $thickness=3.6e-08 $X=0.486
+ $Y=0.346 $X2=0.486 $Y2=0.384
r55 28 38 7.6809 $w=1.8e-08 $l=3.8e-08 $layer=M1 $thickness=3.6e-08 $X=0.486
+ $Y=0.346 $X2=0.486 $Y2=0.308
r56 28 40 6.16517 $w=1.8e-08 $l=3.15e-08 $layer=M1 $thickness=3.6e-08 $X=0.486
+ $Y=0.346 $X2=0.5175 $Y2=0.346
r57 83 84 8.86121 $w=1.8e-08 $l=3.8e-08 $layer=M1 $thickness=3.6e-08 $X=0.486
+ $Y=0.422 $X2=0.486 $Y2=0.384
r58 82 83 5.01358 $w=1.8e-08 $l=2.15e-08 $layer=M1 $thickness=3.6e-08 $X=0.486
+ $Y=0.4435 $X2=0.486 $Y2=0.422
r59 81 82 5.01358 $w=1.8e-08 $l=2.15e-08 $layer=M1 $thickness=3.6e-08 $X=0.486
+ $Y=0.465 $X2=0.486 $Y2=0.4435
r60 39 81 10.7267 $w=1.8e-08 $l=4.6e-08 $layer=M1 $thickness=3.6e-08 $X=0.486
+ $Y=0.511 $X2=0.486 $Y2=0.465
r61 32 43 9.54642 $w=1.8e-08 $l=4.6e-08 $layer=M1 $thickness=3.6e-08 $X=0.554
+ $Y=0.649 $X2=0.554 $Y2=0.603
r62 30 70 2.20094 $w=1.8e-08 $l=1.45e-08 $layer=M1 $thickness=3.6e-08 $X=0.554
+ $Y=0.465 $X2=0.554 $Y2=0.4795
r63 29 68 5.69636 $w=1.8e-08 $l=3.15e-08 $layer=M1 $thickness=3.6e-08 $X=0.486
+ $Y=0.557 $X2=0.5175 $Y2=0.557
r64 29 39 9.07762 $w=1.8e-08 $l=4.6e-08 $layer=M1 $thickness=3.6e-08 $X=0.486
+ $Y=0.557 $X2=0.486 $Y2=0.511
r65 77 76 16.6668 $w=2e-08 $l=4.9e-08 $layer=<ENCRYPTED_LAYER_23>
+ $thickness=5.6e-08 $X=0.783 $Y=0.638 $X2=0.783 $Y2=0.589
r66 19 76 11.0545 $w=2e-08 $l=3.2e-08 $layer=<ENCRYPTED_LAYER_23>
+ $thickness=5.6e-08 $X=0.783 $Y=0.557 $X2=0.783 $Y2=0.589
r67 72 73 16.6668 $w=2e-08 $l=4.9e-08 $layer=<ENCRYPTED_LAYER_23>
+ $thickness=5.6e-08 $X=0.675 $Y=0.476 $X2=0.675 $Y2=0.525
r68 18 73 11.0545 $w=2e-08 $l=3.2e-08 $layer=<ENCRYPTED_LAYER_23>
+ $thickness=5.6e-08 $X=0.675 $Y=0.557 $X2=0.675 $Y2=0.525
r69 69 70 3.38125 $w=1.8e-08 $l=1.45e-08 $layer=M1 $thickness=3.6e-08 $X=0.554
+ $Y=0.494 $X2=0.554 $Y2=0.4795
r70 42 69 7.34548 $w=1.8e-08 $l=3.15e-08 $layer=M1 $thickness=3.6e-08 $X=0.554
+ $Y=0.5255 $X2=0.554 $Y2=0.494
r71 41 68 5.82974 $w=1.8e-08 $l=2.5e-08 $layer=M1 $thickness=3.6e-08 $X=0.5425
+ $Y=0.557 $X2=0.5175 $Y2=0.557
r72 3 63 19.3796 $w=1.8e-08 $l=1.8e-08 $layer=<ENCRYPTED_LAYER_4> $X=0.783
+ $Y=0.557 $X2=0.783 $Y2=0.557
r73 3 19 6.74717 $w=2e-08 $layer=<ENCRYPTED_LAYER_23> $thickness=5.2e-08
+ $X=0.783 $Y=0.557 $X2=0.783 $Y2=0.557
r74 2 61 19.3796 $w=1.8e-08 $l=1.8e-08 $layer=<ENCRYPTED_LAYER_4> $X=0.675
+ $Y=0.557 $X2=0.675 $Y2=0.557
r75 2 18 6.74717 $w=2e-08 $layer=<ENCRYPTED_LAYER_23> $thickness=5.2e-08
+ $X=0.675 $Y=0.557 $X2=0.675 $Y2=0.557
r76 31 59 3.01711 $w=1.8e-08 $l=1.8e-08 $layer=M1 $thickness=3.6e-08 $X=0.554
+ $Y=0.557 $X2=0.572 $Y2=0.557
r77 31 41 1.50137 $w=1.8e-08 $l=1.15e-08 $layer=M1 $thickness=3.6e-08 $X=0.554
+ $Y=0.557 $X2=0.5425 $Y2=0.557
r78 31 42 6.16517 $w=1.8e-08 $l=3.15e-08 $layer=M1 $thickness=3.6e-08 $X=0.554
+ $Y=0.557 $X2=0.554 $Y2=0.5255
r79 31 43 9.54642 $w=1.8e-08 $l=4.6e-08 $layer=M1 $thickness=3.6e-08 $X=0.554
+ $Y=0.557 $X2=0.554 $Y2=0.603
r80 62 63 12.5922 $w=1.8e-08 $l=5.4e-08 $layer=M1 $thickness=3.6e-08 $X=0.729
+ $Y=0.557 $X2=0.783 $Y2=0.557
r81 61 62 12.5922 $w=1.8e-08 $l=5.4e-08 $layer=M1 $thickness=3.6e-08 $X=0.675
+ $Y=0.557 $X2=0.729 $Y2=0.557
r82 60 61 5.24677 $w=1.8e-08 $l=2.25e-08 $layer=M1 $thickness=3.6e-08 $X=0.6525
+ $Y=0.557 $X2=0.675 $Y2=0.557
r83 58 60 4.19742 $w=1.8e-08 $l=1.8e-08 $layer=M1 $thickness=3.6e-08 $X=0.6345
+ $Y=0.557 $X2=0.6525 $Y2=0.557
r84 57 58 3.14806 $w=1.8e-08 $l=1.35e-08 $layer=M1 $thickness=3.6e-08 $X=0.621
+ $Y=0.557 $X2=0.6345 $Y2=0.557
r85 44 57 5.71315 $w=1.8e-08 $l=2.45e-08 $layer=M1 $thickness=3.6e-08 $X=0.5965
+ $Y=0.557 $X2=0.621 $Y2=0.557
r86 44 59 5.71315 $w=1.8e-08 $l=2.45e-08 $layer=M1 $thickness=3.6e-08 $X=0.5965
+ $Y=0.557 $X2=0.572 $Y2=0.557
r87 1 52 6.74717 $w=2e-08 $layer=<ENCRYPTED_LAYER_23> $thickness=5.2e-08
+ $X=0.621 $Y=0.557 $X2=0.621 $Y2=0.557
r88 1 57 19.3796 $w=1.8e-08 $l=1.8e-08 $layer=<ENCRYPTED_LAYER_4> $X=0.621
+ $Y=0.557 $X2=0.621 $Y2=0.557
r89 51 52 5.61228 $w=2e-08 $l=1.6e-08 $layer=<ENCRYPTED_LAYER_23>
+ $thickness=5.6e-08 $X=0.621 $Y=0.541 $X2=0.621 $Y2=0.557
r90 50 51 7.48304 $w=2e-08 $l=2.2e-08 $layer=<ENCRYPTED_LAYER_23>
+ $thickness=5.6e-08 $X=0.621 $Y=0.519 $X2=0.621 $Y2=0.541
r91 49 50 14.6259 $w=2e-08 $l=4.3e-08 $layer=<ENCRYPTED_LAYER_23>
+ $thickness=5.6e-08 $X=0.621 $Y=0.476 $X2=0.621 $Y2=0.519
r92 49 17 10.0341 $w=2e-08 $l=2.95e-08 $layer=<ENCRYPTED_LAYER_23>
+ $thickness=5.6e-08 $X=0.621 $Y=0.476 $X2=0.621 $Y2=0.4465
.ends

.subckt PM_Neuron%W1<0> VSS 33 18 36 41 10 14 11 13 15 3 9 2 7 8
c1 1 VSS 0.00374107f $X=1.161 $Y=0.557
c2 2 VSS 0.00384449f $X=1.215 $Y=0.557
c3 3 VSS 0.00366093f $X=1.323 $Y=0.557
c4 7 VSS 0.0490199f $X=1.161 $Y=0.557
c5 8 VSS 0.0499352f $X=1.215 $Y=0.557
c6 9 VSS 0.0480368f $X=1.323 $Y=0.4955
c7 10 VSS 0.00597256f $X=1.094 $Y=0.465
c8 11 VSS 0.00119419f $X=1.094 $Y=0.5497
c9 12 VSS 0.00645017f $X=1.094 $Y=0.649
c10 13 VSS 0.00416182f $X=1.094 $Y=0.5255
c11 14 VSS 0.00390959f $X=1.094 $Y=0.603
c12 15 VSS 0.0072555f $X=1.1925 $Y=0.557
r1 12 14 9.54642 $w=1.8e-08 $l=4.6e-08 $layer=M1 $thickness=3.6e-08 $X=1.094
+ $Y=0.649 $X2=1.094 $Y2=0.603
r2 10 46 2.20094 $w=1.8e-08 $l=1.45e-08 $layer=M1 $thickness=3.6e-08 $X=1.094
+ $Y=0.465 $X2=1.094 $Y2=0.4795
r3 14 34 9.31682 $w=1.8e-08 $l=4.38e-08 $layer=M1 $thickness=3.6e-08 $X=1.094
+ $Y=0.603 $X2=1.094 $Y2=0.5592
r4 45 46 3.38125 $w=1.8e-08 $l=1.45e-08 $layer=M1 $thickness=3.6e-08 $X=1.094
+ $Y=0.494 $X2=1.094 $Y2=0.4795
r5 13 45 7.34548 $w=1.8e-08 $l=3.15e-08 $layer=M1 $thickness=3.6e-08 $X=1.094
+ $Y=0.5255 $X2=1.094 $Y2=0.494
r6 41 42 14.6259 $w=2e-08 $l=4.3e-08 $layer=<ENCRYPTED_LAYER_23>
+ $thickness=5.6e-08 $X=1.161 $Y=0.476 $X2=1.161 $Y2=0.519
r7 39 42 7.48304 $w=2e-08 $l=2.2e-08 $layer=<ENCRYPTED_LAYER_23>
+ $thickness=5.6e-08 $X=1.161 $Y=0.541 $X2=1.161 $Y2=0.519
r8 7 39 5.61228 $w=2e-08 $l=1.6e-08 $layer=<ENCRYPTED_LAYER_23>
+ $thickness=5.6e-08 $X=1.161 $Y=0.557 $X2=1.161 $Y2=0.541
r9 36 37 16.6668 $w=2e-08 $l=4.9e-08 $layer=<ENCRYPTED_LAYER_23>
+ $thickness=5.6e-08 $X=1.215 $Y=0.476 $X2=1.215 $Y2=0.525
r10 8 37 11.0545 $w=2e-08 $l=3.2e-08 $layer=<ENCRYPTED_LAYER_23>
+ $thickness=5.6e-08 $X=1.215 $Y=0.557 $X2=1.215 $Y2=0.525
r11 33 34 0.739822 $w=1.8e-08 $l=7.2e-09 $layer=M1 $thickness=3.6e-08 $X=1.094
+ $Y=0.552 $X2=1.094 $Y2=0.5592
r12 33 11 0.2296 $w=1.8e-08 $l=2.3e-09 $layer=M1 $thickness=3.6e-08 $X=1.094
+ $Y=0.552 $X2=1.094 $Y2=0.5497
r13 11 13 5.42535 $w=1.8e-08 $l=2.42e-08 $layer=M1 $thickness=3.6e-08 $X=1.094
+ $Y=0.5497 $X2=1.094 $Y2=0.5255
r14 1 26 19.3796 $w=1.8e-08 $l=1.8e-08 $layer=<ENCRYPTED_LAYER_4> $X=1.161
+ $Y=0.557 $X2=1.161 $Y2=0.557
r15 1 7 6.74717 $w=2e-08 $layer=<ENCRYPTED_LAYER_23> $thickness=5.2e-08
+ $X=1.161 $Y=0.557 $X2=1.161 $Y2=0.557
r16 2 22 19.3796 $w=1.8e-08 $l=1.8e-08 $layer=<ENCRYPTED_LAYER_4> $X=1.215
+ $Y=0.557 $X2=1.215 $Y2=0.557
r17 2 8 6.74717 $w=2e-08 $layer=<ENCRYPTED_LAYER_23> $thickness=5.2e-08
+ $X=1.215 $Y=0.557 $X2=1.215 $Y2=0.557
r18 28 34 2.78751 $w=1.575e-08 $l=1.81339e-08 $layer=M1 $thickness=3.6e-08
+ $X=1.112 $Y=0.557 $X2=1.094 $Y2=0.5592
r19 26 27 3.14806 $w=1.8e-08 $l=1.35e-08 $layer=M1 $thickness=3.6e-08 $X=1.161
+ $Y=0.557 $X2=1.1745 $Y2=0.557
r20 25 26 5.71315 $w=1.8e-08 $l=2.45e-08 $layer=M1 $thickness=3.6e-08 $X=1.1365
+ $Y=0.557 $X2=1.161 $Y2=0.557
r21 25 28 5.71315 $w=1.8e-08 $l=2.45e-08 $layer=M1 $thickness=3.6e-08 $X=1.1365
+ $Y=0.557 $X2=1.112 $Y2=0.557
r22 23 24 12.5922 $w=1.8e-08 $l=5.4e-08 $layer=M1 $thickness=3.6e-08 $X=1.269
+ $Y=0.557 $X2=1.323 $Y2=0.557
r23 22 23 12.5922 $w=1.8e-08 $l=5.4e-08 $layer=M1 $thickness=3.6e-08 $X=1.215
+ $Y=0.557 $X2=1.269 $Y2=0.557
r24 15 22 5.24677 $w=1.8e-08 $l=2.25e-08 $layer=M1 $thickness=3.6e-08 $X=1.1925
+ $Y=0.557 $X2=1.215 $Y2=0.557
r25 15 27 4.19742 $w=1.8e-08 $l=1.8e-08 $layer=M1 $thickness=3.6e-08 $X=1.1925
+ $Y=0.557 $X2=1.1745 $Y2=0.557
r26 3 16 6.74717 $w=2e-08 $layer=<ENCRYPTED_LAYER_23> $thickness=5.2e-08
+ $X=1.323 $Y=0.557 $X2=1.323 $Y2=0.557
r27 3 24 19.3796 $w=1.8e-08 $l=1.8e-08 $layer=<ENCRYPTED_LAYER_4> $X=1.323
+ $Y=0.557 $X2=1.323 $Y2=0.557
r28 18 17 16.6668 $w=2e-08 $l=4.9e-08 $layer=<ENCRYPTED_LAYER_23>
+ $thickness=5.6e-08 $X=1.323 $Y=0.638 $X2=1.323 $Y2=0.589
r29 16 17 11.0545 $w=2e-08 $l=3.2e-08 $layer=<ENCRYPTED_LAYER_23>
+ $thickness=5.6e-08 $X=1.323 $Y=0.557 $X2=1.323 $Y2=0.589
r30 9 16 21.0886 $w=2e-08 $l=6.15e-08 $layer=<ENCRYPTED_LAYER_23>
+ $thickness=5.6e-08 $X=1.323 $Y=0.4955 $X2=1.323 $Y2=0.557
.ends

.subckt PM_Neuron%XI1/XI3/NET2 VSS 34 50 55 79 80 83 84 17 24 7 16 25 19 26 8
+ 27 31 22 21 23 29 30 3 28 20 15 18 1 2 13 14
c1 1 VSS 0.00224788f $X=1.161 $Y=0.135
c2 2 VSS 0.00239455f $X=1.215 $Y=0.135
c3 3 VSS 0.00218755f $X=1.323 $Y=0.135
c4 7 VSS 0.0116199f $X=0.81 $Y=0.216
c5 8 VSS 0.00519015f $X=0.864 $Y=0.054
c6 13 VSS 0.0474605f $X=1.161 $Y=0.135
c7 14 VSS 0.0484377f $X=1.215 $Y=0.135
c8 15 VSS 0.0464402f $X=1.323 $Y=0.0735
c9 16 VSS 0.00380943f $X=0.8495 $Y=0.054
c10 17 VSS 0.00527242f $X=0.7955 $Y=0.216
c11 18 VSS 0.00315736f $X=0.962 $Y=0.0395
c12 19 VSS 0.000274378f $X=0.962 $Y=0.135
c13 20 VSS 0.00287267f $X=0.962 $Y=0.2305
c14 21 VSS 0.00556226f $X=1.094 $Y=0.043
c15 22 VSS 0.00037372f $X=1.094 $Y=0.135
c16 23 VSS 0.00508813f $X=1.094 $Y=0.227
c17 24 VSS 0.0160539f $X=0.94 $Y=0.234
c18 25 VSS 0.00931833f $X=0.94 $Y=0.036
c19 26 VSS 0.0026f $X=0.962 $Y=0.1035
c20 27 VSS 0.00275796f $X=0.962 $Y=0.181
c21 28 VSS 0.00332134f $X=1.0825 $Y=0.135
c22 29 VSS 0.00321405f $X=1.094 $Y=0.1035
c23 30 VSS 0.00247887f $X=1.094 $Y=0.181
c24 31 VSS 0.0048138f $X=1.1925 $Y=0.135
r1 84 82 0.0462963 $w=5.4e-08 $l=2.5e-09 $layer=<ENCRYPTED_LAYER_49>
+ $thickness=1e-09 $X=0.8273 $Y=0.216 $X2=0.8245 $Y2=0.216
r2 7 82 0.268519 $w=5.4e-08 $l=1.45e-08 $layer=<ENCRYPTED_LAYER_49>
+ $thickness=1e-09 $X=0.81 $Y=0.216 $X2=0.8245 $Y2=0.216
r3 17 7 0.268519 $w=5.4e-08 $l=1.45e-08 $layer=<ENCRYPTED_LAYER_49>
+ $thickness=1e-09 $X=0.7955 $Y=0.216 $X2=0.81 $Y2=0.216
r4 83 17 0.0462963 $w=5.4e-08 $l=2.5e-09 $layer=<ENCRYPTED_LAYER_49>
+ $thickness=1e-09 $X=0.7926 $Y=0.216 $X2=0.7955 $Y2=0.216
r5 80 78 0.0462963 $w=5.4e-08 $l=2.5e-09 $layer=<ENCRYPTED_LAYER_48>
+ $thickness=1e-09 $X=0.8813 $Y=0.054 $X2=0.8785 $Y2=0.054
r6 8 78 0.268519 $w=5.4e-08 $l=1.45e-08 $layer=<ENCRYPTED_LAYER_48>
+ $thickness=1e-09 $X=0.864 $Y=0.054 $X2=0.8785 $Y2=0.054
r7 16 8 0.268519 $w=5.4e-08 $l=1.45e-08 $layer=<ENCRYPTED_LAYER_48>
+ $thickness=1e-09 $X=0.8495 $Y=0.054 $X2=0.864 $Y2=0.054
r8 79 16 0.0462963 $w=5.4e-08 $l=2.5e-09 $layer=<ENCRYPTED_LAYER_48>
+ $thickness=1e-09 $X=0.8466 $Y=0.054 $X2=0.8495 $Y2=0.054
r9 7 75 19.3796 $w=1.8e-08 $l=1.8e-08 $layer=<ENCRYPTED_LAYER_7> $X=0.81
+ $Y=0.216 $X2=0.81 $Y2=0.234
r10 8 71 19.3796 $w=1.8e-08 $l=1.8e-08 $layer=<ENCRYPTED_LAYER_7> $X=0.864
+ $Y=0.054 $X2=0.864 $Y2=0.036
r11 75 76 3.14806 $w=1.8e-08 $l=1.35e-08 $layer=M1 $thickness=3.6e-08 $X=0.81
+ $Y=0.234 $X2=0.8235 $Y2=0.234
r12 74 76 9.44419 $w=1.8e-08 $l=4.05e-08 $layer=M1 $thickness=3.6e-08 $X=0.864
+ $Y=0.234 $X2=0.8235 $Y2=0.234
r13 73 74 11.5429 $w=1.8e-08 $l=4.95e-08 $layer=M1 $thickness=3.6e-08 $X=0.9135
+ $Y=0.234 $X2=0.864 $Y2=0.234
r14 24 73 6.17953 $w=1.8e-08 $l=2.65e-08 $layer=M1 $thickness=3.6e-08 $X=0.94
+ $Y=0.234 $X2=0.9135 $Y2=0.234
r15 71 72 8.39483 $w=1.8e-08 $l=3.6e-08 $layer=M1 $thickness=3.6e-08 $X=0.864
+ $Y=0.036 $X2=0.9 $Y2=0.036
r16 25 72 9.32759 $w=1.8e-08 $l=4e-08 $layer=M1 $thickness=3.6e-08 $X=0.94
+ $Y=0.036 $X2=0.9 $Y2=0.036
r17 20 68 1.37741 $w=1.8e-08 $l=9e-09 $layer=M1 $thickness=3.6e-08 $X=0.962
+ $Y=0.2305 $X2=0.962 $Y2=0.2215
r18 20 24 3.59271 $w=1.8e-08 $l=2.22767e-08 $layer=M1 $thickness=3.6e-08
+ $X=0.962 $Y=0.2305 $X2=0.94 $Y2=0.234
r19 18 67 1.37741 $w=1.8e-08 $l=9e-09 $layer=M1 $thickness=3.6e-08 $X=0.962
+ $Y=0.0395 $X2=0.962 $Y2=0.0485
r20 18 25 3.59271 $w=1.8e-08 $l=2.22767e-08 $layer=M1 $thickness=3.6e-08
+ $X=0.962 $Y=0.0395 $X2=0.94 $Y2=0.036
r21 27 68 9.44419 $w=1.8e-08 $l=4.05e-08 $layer=M1 $thickness=3.6e-08 $X=0.962
+ $Y=0.181 $X2=0.962 $Y2=0.2215
r22 66 67 2.09871 $w=1.8e-08 $l=9e-09 $layer=M1 $thickness=3.6e-08 $X=0.962
+ $Y=0.0575 $X2=0.962 $Y2=0.0485
r23 65 66 3.38125 $w=1.8e-08 $l=1.45e-08 $layer=M1 $thickness=3.6e-08 $X=0.962
+ $Y=0.072 $X2=0.962 $Y2=0.0575
r24 26 65 7.34548 $w=1.8e-08 $l=3.15e-08 $layer=M1 $thickness=3.6e-08 $X=0.962
+ $Y=0.1035 $X2=0.962 $Y2=0.072
r25 23 30 9.54642 $w=1.8e-08 $l=4.6e-08 $layer=M1 $thickness=3.6e-08 $X=1.094
+ $Y=0.227 $X2=1.094 $Y2=0.181
r26 21 62 2.20094 $w=1.8e-08 $l=1.45e-08 $layer=M1 $thickness=3.6e-08 $X=1.094
+ $Y=0.043 $X2=1.094 $Y2=0.0575
r27 19 60 1.03499 $w=1.8e-08 $l=9.5e-09 $layer=M1 $thickness=3.6e-08 $X=0.962
+ $Y=0.135 $X2=0.9715 $Y2=0.135
r28 19 26 6.16517 $w=1.8e-08 $l=3.15e-08 $layer=M1 $thickness=3.6e-08 $X=0.962
+ $Y=0.135 $X2=0.962 $Y2=0.1035
r29 19 27 9.54642 $w=1.8e-08 $l=4.6e-08 $layer=M1 $thickness=3.6e-08 $X=0.962
+ $Y=0.135 $X2=0.962 $Y2=0.181
r30 61 62 3.38125 $w=1.8e-08 $l=1.45e-08 $layer=M1 $thickness=3.6e-08 $X=1.094
+ $Y=0.072 $X2=1.094 $Y2=0.0575
r31 29 61 7.34548 $w=1.8e-08 $l=3.15e-08 $layer=M1 $thickness=3.6e-08 $X=1.094
+ $Y=0.1035 $X2=1.094 $Y2=0.072
r32 59 60 12.7088 $w=1.8e-08 $l=5.45e-08 $layer=M1 $thickness=3.6e-08 $X=1.026
+ $Y=0.135 $X2=0.9715 $Y2=0.135
r33 28 59 13.1752 $w=1.8e-08 $l=5.65e-08 $layer=M1 $thickness=3.6e-08 $X=1.0825
+ $Y=0.135 $X2=1.026 $Y2=0.135
r34 55 56 14.6259 $w=2e-08 $l=4.3e-08 $layer=<ENCRYPTED_LAYER_23>
+ $thickness=5.6e-08 $X=1.161 $Y=0.054 $X2=1.161 $Y2=0.097
r35 53 56 7.48304 $w=2e-08 $l=2.2e-08 $layer=<ENCRYPTED_LAYER_23>
+ $thickness=5.6e-08 $X=1.161 $Y=0.119 $X2=1.161 $Y2=0.097
r36 13 53 5.61228 $w=2e-08 $l=1.6e-08 $layer=<ENCRYPTED_LAYER_23>
+ $thickness=5.6e-08 $X=1.161 $Y=0.135 $X2=1.161 $Y2=0.119
r37 50 51 16.6668 $w=2e-08 $l=4.9e-08 $layer=<ENCRYPTED_LAYER_23>
+ $thickness=5.6e-08 $X=1.215 $Y=0.054 $X2=1.215 $Y2=0.103
r38 14 51 11.0545 $w=2e-08 $l=3.2e-08 $layer=<ENCRYPTED_LAYER_23>
+ $thickness=5.6e-08 $X=1.215 $Y=0.135 $X2=1.215 $Y2=0.103
r39 22 44 3.01711 $w=1.8e-08 $l=1.8e-08 $layer=M1 $thickness=3.6e-08 $X=1.094
+ $Y=0.135 $X2=1.112 $Y2=0.135
r40 22 28 1.50137 $w=1.8e-08 $l=1.15e-08 $layer=M1 $thickness=3.6e-08 $X=1.094
+ $Y=0.135 $X2=1.0825 $Y2=0.135
r41 22 29 6.16517 $w=1.8e-08 $l=3.15e-08 $layer=M1 $thickness=3.6e-08 $X=1.094
+ $Y=0.135 $X2=1.094 $Y2=0.1035
r42 22 30 9.54642 $w=1.8e-08 $l=4.6e-08 $layer=M1 $thickness=3.6e-08 $X=1.094
+ $Y=0.135 $X2=1.094 $Y2=0.181
r43 1 42 19.3796 $w=1.8e-08 $l=1.8e-08 $layer=<ENCRYPTED_LAYER_4> $X=1.161
+ $Y=0.135 $X2=1.161 $Y2=0.135
r44 1 13 6.74717 $w=2e-08 $layer=<ENCRYPTED_LAYER_23> $thickness=5.2e-08
+ $X=1.161 $Y=0.135 $X2=1.161 $Y2=0.135
r45 2 38 19.3796 $w=1.8e-08 $l=1.8e-08 $layer=<ENCRYPTED_LAYER_4> $X=1.215
+ $Y=0.135 $X2=1.215 $Y2=0.135
r46 2 14 6.74717 $w=2e-08 $layer=<ENCRYPTED_LAYER_23> $thickness=5.2e-08
+ $X=1.215 $Y=0.135 $X2=1.215 $Y2=0.135
r47 42 43 3.14806 $w=1.8e-08 $l=1.35e-08 $layer=M1 $thickness=3.6e-08 $X=1.161
+ $Y=0.135 $X2=1.1745 $Y2=0.135
r48 41 42 5.71315 $w=1.8e-08 $l=2.45e-08 $layer=M1 $thickness=3.6e-08 $X=1.1365
+ $Y=0.135 $X2=1.161 $Y2=0.135
r49 41 44 5.71315 $w=1.8e-08 $l=2.45e-08 $layer=M1 $thickness=3.6e-08 $X=1.1365
+ $Y=0.135 $X2=1.112 $Y2=0.135
r50 39 40 12.5922 $w=1.8e-08 $l=5.4e-08 $layer=M1 $thickness=3.6e-08 $X=1.269
+ $Y=0.135 $X2=1.323 $Y2=0.135
r51 38 39 12.5922 $w=1.8e-08 $l=5.4e-08 $layer=M1 $thickness=3.6e-08 $X=1.215
+ $Y=0.135 $X2=1.269 $Y2=0.135
r52 31 38 5.24677 $w=1.8e-08 $l=2.25e-08 $layer=M1 $thickness=3.6e-08 $X=1.1925
+ $Y=0.135 $X2=1.215 $Y2=0.135
r53 31 43 4.19742 $w=1.8e-08 $l=1.8e-08 $layer=M1 $thickness=3.6e-08 $X=1.1925
+ $Y=0.135 $X2=1.1745 $Y2=0.135
r54 3 32 6.74717 $w=2e-08 $layer=<ENCRYPTED_LAYER_23> $thickness=5.2e-08
+ $X=1.323 $Y=0.135 $X2=1.323 $Y2=0.135
r55 3 40 19.3796 $w=1.8e-08 $l=1.8e-08 $layer=<ENCRYPTED_LAYER_4> $X=1.323
+ $Y=0.135 $X2=1.323 $Y2=0.135
r56 34 33 16.6668 $w=2e-08 $l=4.9e-08 $layer=<ENCRYPTED_LAYER_23>
+ $thickness=5.6e-08 $X=1.323 $Y=0.216 $X2=1.323 $Y2=0.167
r57 32 33 11.0545 $w=2e-08 $l=3.2e-08 $layer=<ENCRYPTED_LAYER_23>
+ $thickness=5.6e-08 $X=1.323 $Y=0.135 $X2=1.323 $Y2=0.167
r58 15 32 21.0886 $w=2e-08 $l=6.15e-08 $layer=<ENCRYPTED_LAYER_23>
+ $thickness=5.6e-08 $X=1.323 $Y=0.0735 $X2=1.323 $Y2=0.135
.ends

.subckt PM_Neuron%XI1/XI1/XI0/NET1 VSS 16 17 27 29 11 10 1 2 13 12 3
c1 1 VSS 0.010013f $X=1.188 $Y=0.476
c2 2 VSS 0.00486904f $X=1.35 $Y=0.476
c3 3 VSS 0.00535085f $X=1.458 $Y=0.476
c4 10 VSS 0.00368251f $X=1.1735 $Y=0.476
c5 11 VSS 0.00245366f $X=1.352 $Y=0.476
c6 12 VSS 0.0273371f $X=1.4435 $Y=0.476
c7 13 VSS 0.0113039f $X=1.188 $Y=0.494
r1 12 3 0.231482 $w=5.4e-08 $l=1.25e-08 $layer=<ENCRYPTED_LAYER_48>
+ $thickness=1e-09 $X=1.4435 $Y=0.476 $X2=1.458 $Y2=0.476
r2 29 12 0.0462963 $w=5.4e-08 $l=2.5e-09 $layer=<ENCRYPTED_LAYER_48>
+ $thickness=1e-09 $X=1.4406 $Y=0.476 $X2=1.4435 $Y2=0.476
r3 27 26 0.0462963 $w=5.4e-08 $l=2.5e-09 $layer=<ENCRYPTED_LAYER_48>
+ $thickness=1e-09 $X=1.3673 $Y=0.476 $X2=1.3645 $Y2=0.476
r4 11 26 0.231482 $w=5.4e-08 $l=1.25e-08 $layer=<ENCRYPTED_LAYER_48>
+ $thickness=1e-09 $X=1.352 $Y=0.476 $X2=1.3645 $Y2=0.476
r5 3 25 19.3796 $w=1.8e-08 $l=1.8e-08 $layer=<ENCRYPTED_LAYER_7> $X=1.458
+ $Y=0.476 $X2=1.458 $Y2=0.494
r6 2 20 19.3796 $w=1.8e-08 $l=1.8e-08 $layer=<ENCRYPTED_LAYER_7> $X=1.35
+ $Y=0.476 $X2=1.35 $Y2=0.494
r7 24 25 3.14806 $w=1.8e-08 $l=1.35e-08 $layer=M1 $thickness=3.6e-08 $X=1.4445
+ $Y=0.494 $X2=1.458 $Y2=0.494
r8 23 24 6.29612 $w=1.8e-08 $l=2.7e-08 $layer=M1 $thickness=3.6e-08 $X=1.4175
+ $Y=0.494 $X2=1.4445 $Y2=0.494
r9 22 23 8.39483 $w=1.8e-08 $l=3.6e-08 $layer=M1 $thickness=3.6e-08 $X=1.3815
+ $Y=0.494 $X2=1.4175 $Y2=0.494
r10 21 22 4.19742 $w=1.8e-08 $l=1.8e-08 $layer=M1 $thickness=3.6e-08 $X=1.3635
+ $Y=0.494 $X2=1.3815 $Y2=0.494
r11 20 21 3.14806 $w=1.8e-08 $l=1.35e-08 $layer=M1 $thickness=3.6e-08 $X=1.35
+ $Y=0.494 $X2=1.3635 $Y2=0.494
r12 19 20 3.14806 $w=1.8e-08 $l=1.35e-08 $layer=M1 $thickness=3.6e-08 $X=1.3365
+ $Y=0.494 $X2=1.35 $Y2=0.494
r13 18 19 16.7897 $w=1.8e-08 $l=7.2e-08 $layer=M1 $thickness=3.6e-08 $X=1.2645
+ $Y=0.494 $X2=1.3365 $Y2=0.494
r14 13 18 17.839 $w=1.8e-08 $l=7.65e-08 $layer=M1 $thickness=3.6e-08 $X=1.188
+ $Y=0.494 $X2=1.2645 $Y2=0.494
r15 1 13 19.3796 $w=1.8e-08 $l=1.8e-08 $layer=<ENCRYPTED_LAYER_7> $X=1.188
+ $Y=0.476 $X2=1.188 $Y2=0.494
r16 17 15 0.0462963 $w=5.4e-08 $l=2.5e-09 $layer=<ENCRYPTED_LAYER_48>
+ $thickness=1e-09 $X=1.2053 $Y=0.476 $X2=1.2025 $Y2=0.476
r17 1 15 0.268519 $w=5.4e-08 $l=1.45e-08 $layer=<ENCRYPTED_LAYER_48>
+ $thickness=1e-09 $X=1.188 $Y=0.476 $X2=1.2025 $Y2=0.476
r18 10 1 0.268519 $w=5.4e-08 $l=1.45e-08 $layer=<ENCRYPTED_LAYER_48>
+ $thickness=1e-09 $X=1.1735 $Y=0.476 $X2=1.188 $Y2=0.476
r19 16 10 0.0462963 $w=5.4e-08 $l=2.5e-09 $layer=<ENCRYPTED_LAYER_48>
+ $thickness=1e-09 $X=1.1706 $Y=0.476 $X2=1.1735 $Y2=0.476
r20 2 11 1e-05 $l=2e-09 $X=1.35 $Y=0.476 $X2=1.352 $Y2=0.476
.ends

.subckt PM_Neuron%XI1/XI1/NET1 VSS 26 32 56 57 60 61 3 11 20 21 4 18 10 9 24 23
+ 25 15 17 1 19
c1 1 VSS 0.00336085f $X=1.701 $Y=0.557
c2 3 VSS 0.0114213f $X=1.35 $Y=0.638
c3 4 VSS 0.0051495f $X=1.404 $Y=0.476
c4 9 VSS 0.0738252f $X=1.701 $Y=0.4465
c5 10 VSS 0.00252099f $X=1.3895 $Y=0.476
c6 11 VSS 0.00402112f $X=1.3355 $Y=0.638
c7 12 VSS 0.00298478f $X=1.502 $Y=0.4615